
     RDKit          3D

 34 36  0  0  0  0  0  0  0  0999 V2000
    2.3390   -0.7707    0.3417 C   0  0  0  0  0  0  0  0  0  0  0  0
    3.1979    0.3404    0.9009 C   0  0  2  0  0  0  0  0  0  0  0  0
    2.4796    1.5538    1.3418 C   0  0  0  0  0  0  0  0  0  0  0  0
    1.7129    2.2651    0.3853 N   0  0  0  0  0  0  0  0  0  0  0  0
    2.3266    3.2946   -0.3706 C   0  0  0  0  0  0  0  0  0  0  0  0
    1.6368    3.8933   -1.2338 O   0  0  0  0  0  0  0  0  0  0  0  0
    0.3506    1.9817    0.1818 C   0  0  0  0  0  0  0  0  0  0  0  0
   -0.5282    1.8930    1.2390 C   0  0  0  0  0  0  0  0  0  0  0  0
   -1.8898    1.6373    1.0277 C   0  0  0  0  0  0  0  0  0  0  0  0
   -2.3930    1.4677   -0.2395 C   0  0  0  0  0  0  0  0  0  0  0  0
   -3.8303    1.2264   -0.4824 C   0  0  0  0  0  0  0  0  0  0  0  0
   -4.3409    1.3801   -1.6043 O   0  0  0  0  0  0  0  0  0  0  0  0
   -4.6372    0.8101    0.6083 N   0  0  0  0  0  0  0  0  0  0  0  0
   -6.0568    0.5989    0.3556 C   0  0  2  0  0  0  0  0  0  0  0  0
   -6.8606    1.4798    1.2581 C   0  0  0  0  0  0  0  0  0  0  0  0
   -7.4397    0.9892    2.2435 O   0  0  0  0  0  0  0  0  0  0  0  0
   -6.9779    2.8288    1.0284 O   0  0  0  0  0  1  0  0  0  0  0  0
   -6.3872   -0.8427    0.5654 C   0  0  0  0  0  0  0  0  0  0  0  0
   -5.6521   -1.7907   -0.3325 C   0  0  0  0  0  0  0  0  0  0  0  0
   -6.1048   -3.1620   -0.0009 C   0  0  0  0  0  0  0  0  0  0  0  0
   -7.1728   -3.4379    0.8354 O   0  0  0  0  0  1  0  0  0  0  0  0
   -5.5002   -4.1442   -0.4970 O   0  0  0  0  0  0  0  0  0  0  0  0
   -1.5099    1.5548   -1.3017 C   0  0  0  0  0  0  0  0  0  0  0  0
   -0.1754    1.8067   -1.0724 C   0  0  0  0  0  0  0  0  0  0  0  0
    4.2303    0.5899   -0.0768 N   0  0  0  0  0  0  0  0  0  0  0  0
    5.0367   -0.5164   -0.4960 C   0  0  0  0  0  0  0  0  0  0  0  0
    6.2820   -0.3530   -1.0218 C   0  0  0  0  0  0  0  0  0  0  0  0
    6.7446    0.8245   -1.1434 O   0  0  0  0  0  0  0  0  0  0  0  0
    7.0022   -1.4334   -1.4025 N   0  0  0  0  0  0  0  0  0  0  0  0
    6.4994   -2.6878   -1.2679 C   0  0  0  0  0  0  0  0  0  0  0  0
    7.3115   -3.7987   -1.6780 N   0  0  0  0  0  0  0  0  0  0  0  0
    5.2749   -2.8396   -0.7516 N   0  0  0  0  0  0  0  0  0  0  0  0
    4.5229   -1.7913   -0.3592 C   0  0  0  0  0  0  0  0  0  0  0  0
    3.2179   -1.9186    0.1924 N   0  0  0  0  0  0  0  0  0  0  0  0
  1  2  1  0
  2  3  1  6
  3  4  1  0
  4  5  1  0
  5  6  2  0
  4  7  1  0
  7  8  2  0
  8  9  1  0
  9 10  2  0
 10 11  1  0
 11 12  2  0
 11 13  1  0
 13 14  1  0
 14 15  1  0
 15 16  2  0
 15 17  1  0
 14 18  1  1
 18 19  1  0
 19 20  1  0
 20 21  1  0
 20 22  2  0
 10 23  1  0
 23 24  2  0
  2 25  1  0
 25 26  1  0
 26 27  1  0
 27 28  2  0
 27 29  1  0
 29 30  1  0
 30 31  1  0
 30 32  2  0
 32 33  1  0
 33 34  1  0
 24  7  1  0
 34  1  1  0
 33 26  2  0
M  CHG  2  17  -1  21  -1
M  END

