
     RDKit          3D

  5  4  0  0  0  0  0  0  0  0999 V2000
   -1.3275   -0.0996   -0.0544 C   0  0  0  0  0  0  0  0  0  0  0  0
   -0.0359    0.0637   -0.8384 C   0  0  0  0  0  0  0  0  0  0  0  0
    0.9564    0.7353    0.0931 C   0  0  0  0  0  0  0  0  0  0  0  0
    1.1252   -0.0921    1.1932 O   0  0  0  0  0  0  0  0  0  0  0  0
   -0.9900   -0.9072    1.0585 O   0  0  0  0  0  0  0  0  0  0  0  0
  1  2  1  0
  2  3  1  0
  3  4  1  0
  1  5  1  0
M  END

