
     RDKit          3D

 32 31  0  0  0  0  0  0  0  0999 V2000
    7.3051    5.4712    1.2262 C   0  0  0  0  0  0  0  0  0  0  0  0
    7.5496    4.1317    0.5264 C   0  0  0  0  0  0  0  0  0  0  0  0
    6.2286    3.5610    0.1222 C   0  0  0  0  0  0  0  0  0  0  0  0
    6.4144    2.2513   -0.5811 C   0  0  0  0  0  0  0  0  0  0  0  0
    7.0929    1.2620    0.3130 C   0  0  0  0  0  0  0  0  0  0  0  0
    7.2793   -0.0685   -0.3778 C   0  0  0  0  0  0  0  0  0  0  0  0
    5.9506   -0.6416   -0.7905 C   0  0  0  0  0  0  0  0  0  0  0  0
    5.0865   -0.8447    0.4015 C   0  0  0  0  0  0  0  0  0  0  0  0
    3.7388   -1.4109    0.0242 C   0  0  0  0  0  0  0  0  0  0  0  0
    3.9179   -2.7338   -0.6384 C   0  0  0  0  0  0  0  0  0  0  0  0
    2.6328   -3.3738   -1.0502 C   0  0  0  0  0  0  0  0  0  0  0  0
    1.7403   -3.6248    0.1222 C   0  0  0  0  0  0  0  0  0  0  0  0
    0.4762   -4.2857   -0.3476 C   0  0  0  0  0  0  0  0  0  0  0  0
   -0.2529   -3.4430   -1.3325 C   0  0  0  0  0  0  0  0  0  0  0  0
   -0.6185   -2.1087   -0.6999 C   0  0  0  0  0  0  0  0  0  0  0  0
   -1.3520   -1.2420   -1.6633 C   0  0  0  0  0  0  0  0  0  0  0  0
   -2.6223   -1.8735   -2.1287 C   0  0  0  0  0  0  0  0  0  0  0  0
   -3.5438   -2.0559   -0.9527 C   0  0  0  0  0  0  0  0  0  0  0  0
   -4.7233   -2.7484   -1.1240 O   0  0  0  0  0  0  0  0  0  0  0  0
   -5.7081   -3.0119   -0.2287 C   0  0  0  0  0  0  0  0  0  0  0  0
   -6.6170   -1.8945    0.1557 C   0  0  1  0  0  0  0  0  0  0  0  0
   -7.5479   -2.3479    1.1401 O   0  0  0  0  0  0  0  0  0  0  0  0
   -5.9228   -0.6737    0.5803 C   0  0  0  0  0  0  0  0  0  0  0  0
   -6.8341    0.3813    0.8675 O   0  0  0  0  0  0  0  0  0  0  0  0
   -5.8721    1.6971    1.3340 P   0  0  0  0  0  5  0  0  0  0  0  0
   -5.5803    1.6956    2.9966 O   0  0  0  0  0  1  0  0  0  0  0  0
   -4.5285    1.6664    0.6444 O   0  0  0  0  0  0  0  0  0  0  0  0
   -6.7280    3.1078    0.9578 O   0  0  0  0  0  0  0  0  0  0  0  0
   -8.0856    2.8055    1.0600 C   0  0  0  0  0  0  0  0  0  0  0  0
   -8.8475    4.0784    0.7199 C   0  0  0  0  0  0  0  0  0  0  0  0
   -8.5090    5.1345    1.6263 N   0  0  0  0  0  4  0  0  0  0  0  0
   -3.2163   -1.5724    0.1569 O   0  0  0  0  0  0  0  0  0  0  0  0
  1  2  1  0
  2  3  1  0
  3  4  1  0
  4  5  1  0
  5  6  1  0
  6  7  1  0
  7  8  1  0
  8  9  1  0
  9 10  1  0
 10 11  1  0
 11 12  1  0
 12 13  1  0
 13 14  1  0
 14 15  1  0
 15 16  1  0
 16 17  1  0
 17 18  1  0
 18 19  1  0
 19 20  1  0
 20 21  1  0
 21 22  1  1
 21 23  1  0
 23 24  1  0
 24 25  1  0
 25 26  1  0
 25 27  2  0
 25 28  1  0
 28 29  1  0
 29 30  1  0
 30 31  1  0
 18 32  2  0
M  CHG  2  26  -1  31   1
M  END

