
     RDKit          3D

 30 29  0  0  0  0  0  0  0  0999 V2000
  -11.8654    0.0623    1.0027 C   0  0  0  0  0  0  0  0  0  0  0  0
  -10.7545   -0.1759    1.9981 C   0  0  0  0  0  0  0  0  0  0  0  0
   -9.3840   -0.1446    1.3561 C   0  0  0  0  0  0  0  0  0  0  0  0
   -9.3036   -1.2211    0.2995 C   0  0  0  0  0  0  0  0  0  0  0  0
   -7.9460   -1.2359   -0.3785 C   0  0  0  0  0  0  0  0  0  0  0  0
   -6.8370   -1.4897    0.5835 C   0  0  0  0  0  0  0  0  0  0  0  0
   -5.4840   -1.5162   -0.0683 C   0  0  0  0  0  0  0  0  0  0  0  0
   -5.1783   -0.2214   -0.7142 C   0  0  0  0  0  0  0  0  0  0  0  0
   -3.8212   -0.2535   -1.3927 C   0  0  0  0  0  0  0  0  0  0  0  0
   -2.7648   -0.5244   -0.3915 C   0  0  0  0  0  0  0  0  0  0  0  0
   -1.3886   -0.5599   -1.0989 C   0  0  0  0  0  0  0  0  0  0  0  0
   -1.0721    0.7279   -1.7454 C   0  0  0  0  0  0  0  0  0  0  0  0
    0.1876    0.9085   -2.4733 C   0  0  0  0  0  0  0  0  0  0  0  0
    1.5083    0.8544   -1.8672 C   0  0  0  0  0  0  0  0  0  0  0  0
    1.9588   -0.3800   -1.1978 C   0  0  0  0  0  0  0  0  0  0  0  0
    3.3875   -0.2129   -0.7301 C   0  0  0  0  0  0  0  0  0  0  0  0
    3.7272    0.0673    0.5708 O   0  0  0  0  0  0  0  0  0  0  0  0
    5.0588    0.2249    1.0175 C   0  0  0  0  0  0  0  0  0  0  0  0
    5.7869    1.3464    0.3220 C   0  0  2  0  0  0  0  0  0  0  0  0
    7.1701    1.4244    0.9349 C   0  0  0  0  0  0  0  0  0  0  0  0
    7.8353    2.4854    0.2899 O   0  0  0  0  0  0  0  0  0  0  0  0
    9.4107    2.6608    0.9069 P   0  0  0  0  0  5  0  0  0  0  0  0
    9.8820    1.1445    1.4776 O   0  0  0  0  0  0  0  0  0  0  0  0
   10.5477    0.4153    0.4866 C   0  0  0  0  0  0  0  0  0  0  0  0
   10.9753   -0.9360    0.9728 C   0  0  0  0  0  0  0  0  0  0  0  0
   11.6519   -1.6130   -0.1169 N   0  0  0  0  0  4  0  0  0  0  0  0
   10.3842    3.1597   -0.3951 O   0  0  0  0  0  1  0  0  0  0  0  0
    9.4516    3.6839    2.0269 O   0  0  0  0  0  0  0  0  0  0  0  0
    5.1450    2.5416    0.5375 O   0  0  0  0  0  0  0  0  0  0  0  0
    4.3065   -0.3373   -1.5768 O   0  0  0  0  0  0  0  0  0  0  0  0
  1  2  1  0
  2  3  1  0
  3  4  1  0
  4  5  1  0
  5  6  1  0
  6  7  1  0
  7  8  1  0
  8  9  1  0
  9 10  1  0
 10 11  1  0
 11 12  1  0
 12 13  1  0
 13 14  1  0
 14 15  1  0
 15 16  1  0
 16 17  1  0
 17 18  1  0
 18 19  1  0
 19 20  1  0
 20 21  1  0
 21 22  1  0
 22 23  1  0
 23 24  1  0
 24 25  1  0
 25 26  1  0
 22 27  1  0
 22 28  2  0
 19 29  1  1
 16 30  2  0
M  CHG  2  26   1  27  -1
M  END

