
     RDKit          3D

 28 27  0  0  0  0  0  0  0  0999 V2000
    8.9522    1.1137   -1.7818 C   0  0  0  0  0  0  0  0  0  0  0  0
    9.1673    1.7207   -0.4507 C   0  0  0  0  0  0  0  0  0  0  0  0
    7.9876    2.1045    0.3411 C   0  0  0  0  0  0  0  0  0  0  0  0
    7.1066    1.0066    0.7747 C   0  0  0  0  0  0  0  0  0  0  0  0
    6.4993    0.2129   -0.2987 C   0  0  0  0  0  0  0  0  0  0  0  0
    5.5863   -0.8595    0.2859 C   0  0  0  0  0  0  0  0  0  0  0  0
    4.4875   -0.2123    1.0742 C   0  0  0  0  0  0  0  0  0  0  0  0
    3.5742   -1.3231    1.5983 C   0  0  0  0  0  0  0  0  0  0  0  0
    2.9721   -2.1261    0.4943 C   0  0  0  0  0  0  0  0  0  0  0  0
    2.1468   -1.2900   -0.4260 C   0  0  0  0  0  0  0  0  0  0  0  0
    1.0235   -0.6482    0.3665 C   0  0  0  0  0  0  0  0  0  0  0  0
    0.2202    0.1727   -0.5805 C   0  0  0  0  0  0  0  0  0  0  0  0
   -0.9168    0.8510    0.1250 C   0  0  0  0  0  0  0  0  0  0  0  0
   -1.8304   -0.1696    0.6910 C   0  0  0  0  0  0  0  0  0  0  0  0
   -2.9319    0.2162    1.4802 O   0  0  0  0  0  0  0  0  0  0  0  0
   -3.7735   -0.7515    1.9963 C   0  0  0  0  0  0  0  0  0  0  0  0
   -4.4954   -1.6123    1.0190 C   0  0  1  0  0  0  0  0  0  0  0  0
   -5.2832   -2.5082    1.7780 O   0  0  0  0  0  0  0  0  0  0  0  0
   -5.4222   -0.8351    0.1126 C   0  0  0  0  0  0  0  0  0  0  0  0
   -6.0859   -1.7578   -0.7233 O   0  0  0  0  0  0  0  0  0  0  0  0
   -7.1492   -0.9187   -1.7661 P   0  0  0  0  0  5  0  0  0  0  0  0
   -7.9749   -2.0844   -2.6613 O   0  0  0  0  0  1  0  0  0  0  0  0
   -6.4081    0.0054   -2.6831 O   0  0  0  0  0  0  0  0  0  0  0  0
   -8.2111   -0.0643   -0.7544 O   0  0  0  0  0  0  0  0  0  0  0  0
   -8.4538    1.2215   -1.2444 C   0  0  0  0  0  0  0  0  0  0  0  0
   -9.4176    1.8629   -0.2358 C   0  0  0  0  0  0  0  0  0  0  0  0
  -10.6374    1.0817   -0.1658 N   0  0  0  0  0  4  0  0  0  0  0  0
   -1.6970   -1.4076    0.5169 O   0  0  0  0  0  0  0  0  0  0  0  0
  1  2  1  0
  2  3  1  0
  3  4  1  0
  4  5  1  0
  5  6  1  0
  6  7  1  0
  7  8  1  0
  8  9  1  0
  9 10  1  0
 10 11  1  0
 11 12  1  0
 12 13  1  0
 13 14  1  0
 14 15  1  0
 15 16  1  0
 16 17  1  0
 17 18  1  1
 17 19  1  0
 19 20  1  0
 20 21  1  0
 21 22  1  0
 21 23  2  0
 21 24  1  0
 24 25  1  0
 25 26  1  0
 26 27  1  0
 14 28  2  0
M  CHG  2  22  -1  27   1
M  END

