
     RDKit          3D

 28 27  0  0  0  0  0  0  0  0999 V2000
   -7.0253    4.4290    0.6846 C   0  0  0  0  0  0  0  0  0  0  0  0
   -7.4953    3.1834   -0.0094 C   0  0  0  0  0  0  0  0  0  0  0  0
   -6.8670    1.9530    0.6097 C   0  0  0  0  0  0  0  0  0  0  0  0
   -7.3627    0.7186   -0.1137 C   0  0  0  0  0  0  0  0  0  0  0  0
   -6.7881   -0.5430    0.4381 C   0  0  0  0  0  0  0  0  0  0  0  0
   -5.2697   -0.5758    0.3447 C   0  0  0  0  0  0  0  0  0  0  0  0
   -4.7886   -0.4710   -1.0595 C   0  0  0  0  0  0  0  0  0  0  0  0
   -3.2889   -0.4843   -1.1011 C   0  0  0  0  0  0  0  0  0  0  0  0
   -2.7674   -1.7511   -0.5205 C   0  0  0  0  0  0  0  0  0  0  0  0
   -1.2476   -1.8218   -0.5611 C   0  0  0  0  0  0  0  0  0  0  0  0
   -0.8597   -3.1635    0.0619 C   0  0  0  0  0  0  0  0  0  0  0  0
    0.6251   -3.3113    0.0597 C   0  0  0  0  0  0  0  0  0  0  0  0
    1.0893   -4.3610    0.5390 O   0  0  0  0  0  0  0  0  0  0  0  0
    1.3899   -2.3022   -0.4604 O   0  0  0  0  0  0  0  0  0  0  0  0
    2.7659   -2.2841   -0.5284 C   0  0  0  0  0  0  0  0  0  0  0  0
    3.5152   -2.2873    0.7744 C   0  0  2  0  0  0  0  0  0  0  0  0
    5.0132   -2.2251    0.5480 C   0  0  0  0  0  0  0  0  0  0  0  0
    5.3695   -1.0884   -0.1773 O   0  0  0  0  0  0  0  0  0  0  0  0
    7.0144   -0.9884   -0.4449 P   0  0  0  0  0  5  0  0  0  0  0  0
    7.3507   -1.1561   -1.9201 O   0  0  0  0  0  0  0  0  0  0  0  0
    7.5269    0.5511    0.0775 O   0  0  0  0  0  0  0  0  0  0  0  0
    6.8019    1.4907   -0.6548 C   0  0  0  0  0  0  0  0  0  0  0  0
    7.2828    2.8612   -0.1647 C   0  0  2  0  0  0  0  0  0  0  0  0
    8.8074    2.8294   -0.3311 C   0  0  0  0  0  0  0  0  0  0  0  0
    9.1195    2.7394   -1.6871 O   0  0  0  0  0  0  0  0  0  0  0  0
    7.0205    2.9508    1.1943 O   0  0  0  0  0  0  0  0  0  0  0  0
    7.8853   -2.1171    0.4797 O   0  0  0  0  0  1  0  0  0  0  0  0
    3.2268   -3.4286    1.4939 O   0  0  0  0  0  0  0  0  0  0  0  0
  1  2  1  0
  2  3  1  0
  3  4  1  0
  4  5  1  0
  5  6  1  0
  6  7  1  0
  7  8  1  0
  8  9  1  0
  9 10  1  0
 10 11  1  0
 11 12  1  0
 12 13  2  0
 12 14  1  0
 14 15  1  0
 15 16  1  0
 16 17  1  0
 17 18  1  0
 18 19  1  0
 19 20  2  0
 19 21  1  0
 21 22  1  0
 22 23  1  0
 23 24  1  0
 24 25  1  0
 23 26  1  1
 19 27  1  0
 16 28  1  6
M  CHG  1  27  -1
M  END

