
     RDKit          3D

 26 25  0  0  0  0  0  0  0  0999 V2000
   -9.2499    2.6352    0.6360 C   0  0  0  0  0  0  0  0  0  0  0  0
   -8.4118    1.3683    0.4481 C   0  0  0  0  0  0  0  0  0  0  0  0
   -7.1262    1.7382   -0.2387 C   0  0  0  0  0  0  0  0  0  0  0  0
   -6.2930    0.5130   -0.4611 C   0  0  0  0  0  0  0  0  0  0  0  0
   -5.9486   -0.1501    0.8237 C   0  0  0  0  0  0  0  0  0  0  0  0
   -5.1129   -1.3721    0.5668 C   0  0  0  0  0  0  0  0  0  0  0  0
   -3.8376   -0.9712   -0.1542 C   0  0  0  0  0  0  0  0  0  0  0  0
   -3.0165   -0.0022    0.6094 C   0  0  0  0  0  0  0  0  0  0  0  0
   -1.7877    0.4528   -0.0283 C   0  0  0  0  0  0  0  0  0  0  0  0
   -0.6693   -0.3690   -0.4064 C   0  0  0  0  0  0  0  0  0  0  0  0
   -0.7264   -1.4575   -1.3821 C   0  0  0  0  0  0  0  0  0  0  0  0
    0.6520   -2.0615   -1.5466 C   0  0  0  0  0  0  0  0  0  0  0  0
    1.6799   -1.5598   -0.8288 O   0  0  0  0  0  0  0  0  0  0  0  0
    3.0263   -2.0513   -0.9027 C   0  0  0  0  0  0  0  0  0  0  0  0
    3.8230   -1.2043    0.0587 C   0  0  1  0  0  0  0  0  0  0  0  0
    3.2647   -1.3802    1.3204 O   0  0  0  0  0  0  0  0  0  0  0  0
    5.2513   -1.6605   -0.0068 C   0  0  0  0  0  0  0  0  0  0  0  0
    6.0640   -0.9668    0.8852 O   0  0  0  0  0  0  0  0  0  0  0  0
    7.6543   -1.4500    0.8357 P   0  0  0  0  0  5  0  0  0  0  0  0
    8.1539   -1.9630    2.3652 O   0  0  0  0  0  1  0  0  0  0  0  0
    7.9067   -2.5774   -0.1322 O   0  0  0  0  0  0  0  0  0  0  0  0
    8.6080   -0.1438    0.3439 O   0  0  0  0  0  0  0  0  0  0  0  0
    7.7989    0.7825   -0.3003 C   0  0  0  0  0  0  0  0  0  0  0  0
    8.5555    1.9838   -0.7768 C   0  0  0  0  0  0  0  0  0  0  0  0
    9.1601    2.6265    0.3708 N   0  0  0  0  0  4  0  0  0  0  0  0
    0.8127   -3.0069   -2.3381 O   0  0  0  0  0  0  0  0  0  0  0  0
  1  2  1  0
  2  3  1  0
  3  4  1  0
  4  5  1  0
  5  6  1  0
  6  7  1  0
  7  8  1  0
  8  9  1  0
  9 10  1  0
 10 11  1  0
 11 12  1  0
 12 13  1  0
 13 14  1  0
 14 15  1  0
 15 16  1  1
 15 17  1  0
 17 18  1  0
 18 19  1  0
 19 20  1  0
 19 21  2  0
 19 22  1  0
 22 23  1  0
 23 24  1  0
 24 25  1  0
 12 26  2  0
M  CHG  2  20  -1  25   1
M  END

