
     RDKit          3D

 25 24  0  0  0  0  0  0  0  0999 V2000
   -8.0075   -1.3134   -0.0148 C   0  0  0  0  0  0  0  0  0  0  0  0
   -7.6415   -0.0140   -0.7077 C   0  0  0  0  0  0  0  0  0  0  0  0
   -7.1879    1.0355    0.2117 C   0  0  0  0  0  0  0  0  0  0  0  0
   -6.0598    0.8978    1.1063 C   0  0  0  0  0  0  0  0  0  0  0  0
   -4.6766    0.6369    0.6406 C   0  0  0  0  0  0  0  0  0  0  0  0
   -4.4215   -0.6499   -0.0525 C   0  0  0  0  0  0  0  0  0  0  0  0
   -3.0995   -0.9087   -0.6450 C   0  0  0  0  0  0  0  0  0  0  0  0
   -1.8435   -0.9089    0.0951 C   0  0  0  0  0  0  0  0  0  0  0  0
   -1.4014    0.4005    0.6327 C   0  0  0  0  0  0  0  0  0  0  0  0
   -0.0829    0.2171    1.3775 C   0  0  0  0  0  0  0  0  0  0  0  0
    0.9729   -0.3224    0.4634 C   0  0  0  0  0  0  0  0  0  0  0  0
    1.2062    0.5780   -0.7010 C   0  0  0  0  0  0  0  0  0  0  0  0
    2.2657    0.0512   -1.6151 C   0  0  0  0  0  0  0  0  0  0  0  0
    3.5736   -0.0241   -0.9373 C   0  0  0  0  0  0  0  0  0  0  0  0
    3.7359    0.4254    0.2123 O   0  0  0  0  0  0  0  0  0  0  0  0
    4.6165   -0.6046   -1.6058 O   0  0  0  0  0  0  0  0  0  0  0  0
    5.8979   -0.7414   -1.1086 C   0  0  0  0  0  0  0  0  0  0  0  0
    6.6294    0.5298   -0.8375 C   0  0  1  0  0  0  0  0  0  0  0  0
    6.0720    1.3695    0.0824 O   0  0  0  0  0  0  0  0  0  0  0  0
    8.0650    0.2468   -0.4093 C   0  0  0  0  0  0  0  0  0  0  0  0
    8.0712   -0.3530    0.8529 O   0  0  0  0  0  0  0  0  0  0  0  0
    9.6475   -0.6689    1.3344 P   0  0  0  0  0  5  0  0  0  0  0  0
   10.5101    0.5579    1.0962 O   0  0  0  0  0  0  0  0  0  0  0  0
    9.6853   -1.0582    2.9812 O   0  0  0  0  0  1  0  0  0  0  0  0
   10.3178   -1.9417    0.4249 O   0  0  0  0  0  1  0  0  0  0  0  0
  1  2  1  0
  2  3  1  0
  3  4  1  0
  4  5  1  0
  5  6  1  0
  6  7  1  0
  7  8  1  0
  8  9  1  0
  9 10  1  0
 10 11  1  0
 11 12  1  0
 12 13  1  0
 13 14  1  0
 14 15  2  0
 14 16  1  0
 16 17  1  0
 17 18  1  0
 18 19  1  1
 18 20  1  0
 20 21  1  0
 21 22  1  0
 22 23  2  0
 22 24  1  0
 22 25  1  0
M  CHG  2  24  -1  25  -1
M  END

