
     RDKit          3D

 20 22  0  0  0  0  0  0  0  0999 V2000
   -2.6599    2.2710    0.1252 C   0  0  0  0  0  0  0  0  0  0  0  0
   -2.3159    3.4069   -0.5751 O   0  0  0  0  0  0  0  0  0  0  0  0
   -2.0745    1.0674   -0.5971 C   0  0  2  0  0  0  0  0  0  0  0  0
   -2.4151   -0.1868    0.2189 C   0  0  2  0  0  0  0  0  0  0  0  0
   -1.0459   -0.5831    0.7010 C   0  0  2  0  0  0  0  0  0  0  0  0
   -0.2366   -0.1746   -0.5019 C   0  0  2  0  0  0  0  0  0  0  0  0
    1.1783   -0.2165   -0.2725 N   0  0  0  0  0  0  0  0  0  0  0  0
    1.6909   -0.5758    0.9043 C   0  0  0  0  0  0  0  0  0  0  0  0
    3.0658   -0.6059    1.0934 C   0  0  0  0  0  0  0  0  0  0  0  0
    3.9188   -0.2638    0.0644 C   0  0  0  0  0  0  0  0  0  0  0  0
    5.3405   -0.2880    0.2376 N   0  0  0  0  0  0  0  0  0  0  0  0
    3.3605    0.0926   -1.1065 N   0  0  0  0  0  0  0  0  0  0  0  0
    2.0234    0.1140   -1.2654 C   0  0  0  0  0  0  0  0  0  0  0  0
    1.5462    0.4594   -2.3953 O   0  0  0  0  0  0  0  0  0  0  0  0
   -0.7072    1.1353   -0.6843 O   0  0  0  0  0  0  0  0  0  0  0  0
   -1.0263   -1.9131    0.9825 O   0  0  0  0  0  0  0  0  0  0  0  0
   -2.2850   -2.5689    0.0330 P   0  0  0  0  0  5  0  0  0  0  0  0
   -1.7805   -3.5366   -0.9806 O   0  0  0  0  0  0  0  0  0  0  0  0
   -3.4571   -3.2104    1.0514 O   0  0  0  0  0  1  0  0  0  0  0  0
   -2.8481   -1.1315   -0.6893 O   0  0  0  0  0  0  0  0  0  0  0  0
  1  2  1  0
  3  1  1  1
  3  4  1  0
  4  5  1  0
  5  6  1  0
  6  7  1  1
  7  8  1  0
  8  9  2  0
  9 10  1  0
 10 11  1  0
 10 12  2  0
 12 13  1  0
 13 14  2  0
  6 15  1  0
  5 16  1  6
 16 17  1  0
 17 18  2  0
 17 19  1  0
 17 20  1  0
 13  7  1  0
 15  3  1  0
  4 20  1  6
M  CHG  1  19  -1
M  END

