
     RDKit          3D

  7  6  0  0  0  0  0  0  0  0999 V2000
   -0.8537    0.8466    0.9561 C   0  0  0  0  0  0  0  0  0  0  0  0
   -0.5773    1.9685    0.5117 O   0  0  0  0  0  0  0  0  0  0  0  0
   -1.5620    0.7725    2.1461 O   0  0  0  0  0  1  0  0  0  0  0  0
   -0.4416   -0.3805    0.2402 C   0  0  1  0  0  0  0  0  0  0  0  0
   -1.5162   -0.9732   -0.5019 N   0  0  0  0  0  4  0  0  0  0  0  0
    0.7236   -0.0079   -0.6610 C   0  0  0  0  0  0  0  0  0  0  0  0
    1.8311    0.5045    0.1152 N   0  0  0  0  0  4  0  0  0  0  0  0
  1  2  2  0
  1  3  1  0
  1  4  1  0
  4  5  1  6
  4  6  1  0
  6  7  1  0
M  CHG  3   3  -1   5   1   7   1
M  END

