
     RDKit          3D

  9  8  0  0  0  0  0  0  0  0999 V2000
   -0.7936    1.1210    0.8896 C   0  0  0  0  0  0  0  0  0  0  0  0
   -0.4649   -0.2502    0.3448 C   0  0  0  0  0  0  0  0  0  0  0  0
   -1.2114   -0.4329   -0.9452 C   0  0  0  0  0  0  0  0  0  0  0  0
   -0.9366   -1.1935    1.2490 O   0  0  0  0  0  0  0  0  0  0  0  0
    1.0200   -0.4116    0.0905 C   0  0  1  0  0  0  0  0  0  0  0  0
    1.2602   -1.6630   -0.4231 O   0  0  0  0  0  0  0  0  0  0  0  0
    1.5176    0.6490   -0.8215 C   0  0  0  0  0  0  0  0  0  0  0  0
    1.8103    0.3734   -2.0080 O   0  0  0  0  0  0  0  0  0  0  0  0
    1.6798    1.9665   -0.4158 O   0  0  0  0  0  1  0  0  0  0  0  0
  1  2  1  0
  2  3  1  0
  2  4  1  0
  2  5  1  0
  5  6  1  6
  5  7  1  0
  7  8  2  0
  7  9  1  0
M  CHG  1   9  -1
M  END

