
     RDKit          3D

 33 36  0  0  0  0  0  0  0  0999 V2000
   -0.1854   -1.3727   -1.3325 C   0  0  0  0  0  0  0  0  0  0  0  0
    0.9505   -1.7719   -0.5027 O   0  0  0  0  0  0  0  0  0  0  0  0
    1.8487   -0.4038   -0.3033 P   0  0  0  0  0  5  0  0  0  0  0  0
    3.4145   -0.2053   -0.1923 O   0  0  0  0  0  0  0  0  0  0  0  0
    4.5689   -0.6910    0.2275 C   0  0  0  0  0  0  0  0  0  0  0  0
    4.5565   -1.8386    0.7517 O   0  0  0  0  0  0  0  0  0  0  0  0
    5.8270    0.0439    0.1344 C   0  0  0  0  0  0  0  0  0  0  0  0
    6.9751   -0.4406    0.7734 C   0  0  0  0  0  0  0  0  0  0  0  0
    8.1204    0.3292    0.8381 C   0  0  0  0  0  0  0  0  0  0  0  0
    8.2029    1.5641    0.2927 C   0  0  0  0  0  0  0  0  0  0  0  0
    7.0998    2.0655   -0.3449 C   0  0  0  0  0  0  0  0  0  0  0  0
    5.9190    1.2926   -0.4178 C   0  0  0  0  0  0  0  0  0  0  0  0
    4.8522    1.8614   -1.0948 O   0  0  0  0  0  0  0  0  0  0  0  0
    7.1132    3.3276   -0.9111 O   0  0  0  0  0  0  0  0  0  0  0  0
    1.2377    0.7581   -1.1636 O   0  0  0  0  0  0  0  0  0  0  0  0
    1.1895    0.0868    1.3817 O   0  0  0  0  0  1  0  0  0  0  0  0
   -1.3892   -1.7229   -0.6186 C   0  0  1  0  0  0  0  0  0  0  0  0
   -2.6104   -1.1592   -1.1135 O   0  0  0  0  0  0  0  0  0  0  0  0
   -3.2675   -1.3123    0.1307 C   0  0  1  0  0  0  0  0  0  0  0  0
   -4.3478   -0.4779    0.3892 N   0  0  0  0  0  0  0  0  0  0  0  0
   -4.4631    0.8099   -0.1126 C   0  0  0  0  0  0  0  0  0  0  0  0
   -5.5814    1.3804    0.4344 C   0  0  0  0  0  0  0  0  0  0  0  0
   -6.1339    0.4907    1.2325 N   0  0  0  0  0  0  0  0  0  0  0  0
   -5.3726   -0.6469    1.2005 C   0  0  0  0  0  0  0  0  0  0  0  0
   -5.9263    2.6945    0.0939 C   0  0  0  0  0  0  0  0  0  0  0  0
   -7.0456    3.3405    0.6068 N   0  0  0  0  0  0  0  0  0  0  0  0
   -5.1112    3.3142   -0.7644 N   0  0  0  0  0  0  0  0  0  0  0  0
   -4.0044    2.7471   -1.3018 C   0  0  0  0  0  0  0  0  0  0  0  0
   -3.6788    1.4548   -0.9644 N   0  0  0  0  0  0  0  0  0  0  0  0
   -3.2980   -2.7791    0.2217 C   0  0  2  0  0  0  0  0  0  0  0  0
   -3.4447   -3.2104    1.5407 O   0  0  0  0  0  0  0  0  0  0  0  0
   -1.7633   -3.0723   -0.1356 C   0  0  2  0  0  0  0  0  0  0  0  0
   -1.0902   -3.3837    1.0485 O   0  0  0  0  0  0  0  0  0  0  0  0
  1  2  1  0
  2  3  1  0
  3  4  1  0
  4  5  1  0
  5  6  2  0
  5  7  1  0
  7  8  2  0
  8  9  1  0
  9 10  2  0
 10 11  1  0
 11 12  2  0
 12 13  1  0
 11 14  1  0
  3 15  2  0
  3 16  1  0
 17  1  1  6
 17 18  1  0
 18 19  1  0
 19 20  1  6
 20 21  1  0
 21 22  2  0
 22 23  1  0
 23 24  2  0
 22 25  1  0
 25 26  1  0
 25 27  2  0
 27 28  1  0
 28 29  2  0
 19 30  1  0
 30 31  1  1
 30 32  1  0
 32 33  1  1
 12  7  1  0
 24 20  1  0
 29 21  1  0
 32 17  1  0
M  CHG  1  16  -1
M  END

