
     RDKit          3D

 10  9  0  0  0  0  0  0  0  0999 V2000
    2.4731    0.1078    0.5159 C   0  0  0  0  0  0  0  0  0  0  0  0
    1.3444    0.3248   -0.4644 C   0  0  0  0  0  0  0  0  0  0  0  0
    0.0044    0.2541    0.2542 C   0  0  1  0  0  0  0  0  0  0  0  0
   -0.1827   -1.0882    0.9049 C   0  0  0  0  0  0  0  0  0  0  0  0
   -0.0437    1.2283    1.2488 O   0  0  0  0  0  0  0  0  0  0  0  0
   -1.1343    0.4394   -0.7412 C   0  0  2  0  0  0  0  0  0  0  0  0
   -2.4269    0.3981   -0.0522 C   0  0  0  0  0  0  0  0  0  0  0  0
   -2.8662    1.4752    0.7191 O   0  0  0  0  0  1  0  0  0  0  0  0
   -3.1769   -0.5952   -0.1297 O   0  0  0  0  0  0  0  0  0  0  0  0
   -1.0905   -0.5224   -1.7269 O   0  0  0  0  0  0  0  0  0  0  0  0
  1  2  1  0
  2  3  1  0
  3  4  1  1
  3  5  1  0
  3  6  1  0
  6  7  1  0
  7  8  1  0
  7  9  2  0
  6 10  1  6
M  CHG  1   8  -1
M  END

