
     RDKit          3D

 13 12  0  0  0  0  0  0  0  0999 V2000
   -2.2531    1.0594   -0.1764 C   0  0  0  0  0  0  0  0  0  0  0  0
   -1.1413    0.0249   -0.1057 C   0  0  2  0  0  0  0  0  0  0  0  0
   -1.5905   -1.1044    0.5707 O   0  0  0  0  0  0  0  0  0  0  0  0
   -0.0363    0.6690    0.7430 C   0  0  1  0  0  0  0  0  0  0  0  0
   -0.6490    0.9877    1.9636 O   0  0  0  0  0  0  0  0  0  0  0  0
    1.1062   -0.2179    0.9350 C   0  0  0  0  0  0  0  0  0  0  0  0
    1.4533   -0.6161    2.0726 O   0  0  0  0  0  0  0  0  0  0  0  0
    1.8776   -0.6644   -0.2130 C   0  0  0  0  0  0  0  0  0  0  0  0
    1.5609   -0.2864   -1.3722 O   0  0  0  0  0  0  0  0  0  0  0  0
    3.0221   -1.5470   -0.0705 C   0  0  0  0  0  0  0  0  0  0  0  0
    3.7493   -1.9680   -1.1516 O   0  0  0  0  0  0  0  0  0  0  0  0
    3.3421   -1.9264    1.0801 O   0  0  0  0  0  0  0  0  0  0  0  0
   -3.3699    0.5641   -0.8469 O   0  0  0  0  0  0  0  0  0  0  0  0
  1  2  1  0
  2  3  1  1
  2  4  1  0
  4  5  1  1
  4  6  1  0
  6  7  2  0
  6  8  1  0
  8  9  2  0
  8 10  1  0
 10 11  1  0
 10 12  2  0
  1 13  1  0
M  END

