
     RDKit          3D

 13 12  0  0  0  0  0  0  0  0999 V2000
    2.8356    0.5043   -0.6992 C   0  0  0  0  0  0  0  0  0  0  0  0
    2.3663   -0.2812    0.4445 C   0  0  2  0  0  0  0  0  0  0  0  0
    0.8454   -0.2101    0.6696 C   0  0  0  0  0  0  0  0  0  0  0  0
    0.1613   -0.7210   -0.5090 C   0  0  0  0  0  0  0  0  0  0  0  0
   -1.2848   -0.8254   -0.6295 C   0  0  0  0  0  0  0  0  0  0  0  0
   -2.1690    0.3540   -0.5352 C   0  0  2  0  0  0  0  0  0  0  0  0
   -2.1781    1.0699    0.7429 C   0  0  0  0  0  0  0  0  0  0  0  0
   -1.6895    0.5049    1.8869 O   0  0  0  0  0  1  0  0  0  0  0  0
   -2.6518    2.2318    0.7954 O   0  0  0  0  0  0  0  0  0  0  0  0
   -3.5291   -0.0475   -0.8370 N   0  0  0  0  0  4  0  0  0  0  0  0
    3.0561    0.1726    1.6467 N   0  0  0  0  0  4  0  0  0  0  0  0
    2.6945    0.1354   -2.0044 O   0  0  0  0  0  1  0  0  0  0  0  0
    3.4182    1.6070   -0.4751 O   0  0  0  0  0  0  0  0  0  0  0  0
  1  2  1  0
  2  3  1  0
  3  4  1  0
  4  5  1  0
  5  6  1  0
  6  7  1  0
  7  8  1  0
  7  9  2  0
  6 10  1  1
  2 11  1  1
  1 12  1  0
  1 13  2  0
M  CHG  4   8  -1  10   1  11   1  12  -1
M  END

