
     RDKit          3D

 32 31  0  0  0  0  0  0  0  0999 V2000
   10.2868   -0.0561   -1.4622 C   0  0  0  0  0  0  0  0  0  0  0  0
    9.2141    0.8776   -1.9260 C   0  0  0  0  0  0  0  0  0  0  0  0
    7.9150    0.5905   -1.1399 C   0  0  0  0  0  0  0  0  0  0  0  0
    8.2455    0.8161    0.2840 C   0  0  0  0  0  0  0  0  0  0  0  0
    7.1987    0.6842    1.3124 C   0  0  0  0  0  0  0  0  0  0  0  0
    6.5384   -0.5925    1.5485 C   0  0  0  0  0  0  0  0  0  0  0  0
    5.7477   -1.2634    0.5047 C   0  0  0  0  0  0  0  0  0  0  0  0
    4.6238   -0.4370   -0.0567 C   0  0  0  0  0  0  0  0  0  0  0  0
    3.6020   -0.0046    0.9325 C   0  0  0  0  0  0  0  0  0  0  0  0
    2.8800   -1.1063    1.6435 C   0  0  0  0  0  0  0  0  0  0  0  0
    2.1192   -2.0392    0.7991 C   0  0  0  0  0  0  0  0  0  0  0  0
    1.0793   -1.5899   -0.1192 C   0  0  0  0  0  0  0  0  0  0  0  0
   -0.1255   -0.8602    0.3525 C   0  0  0  0  0  0  0  0  0  0  0  0
    0.0471    0.4768    0.9649 C   0  0  0  0  0  0  0  0  0  0  0  0
   -1.3199    1.0397    1.3341 C   0  0  0  0  0  0  0  0  0  0  0  0
   -2.2140    1.2757    0.2029 C   0  0  0  0  0  0  0  0  0  0  0  0
   -1.8327    1.1164   -0.9796 O   0  0  0  0  0  0  0  0  0  0  0  0
   -3.5366    1.6894    0.3526 O   0  0  0  0  0  0  0  0  0  0  0  0
   -4.3694    1.9065   -0.7701 C   0  0  2  0  0  0  0  0  0  0  0  0
   -4.7686    3.3902   -0.8512 C   0  0  0  0  0  0  0  0  0  0  0  0
   -5.5783    3.6289   -1.9330 O   0  0  0  0  0  0  0  0  0  0  0  0
   -5.6270    1.0611   -0.6853 C   0  0  0  0  0  0  0  0  0  0  0  0
   -5.2533   -0.2638   -0.6438 O   0  0  0  0  0  0  0  0  0  0  0  0
   -6.5811   -1.3045   -0.5452 P   0  0  0  0  0  5  0  0  0  0  0  0
   -8.0219   -0.4510   -0.3145 O   0  0  0  0  0  0  0  0  0  0  0  0
   -9.0701   -1.1514   -0.8981 C   0  0  0  0  0  0  0  0  0  0  0  0
  -10.3919   -0.4380   -0.7283 C   0  0  2  0  0  0  0  0  0  0  0  0
  -10.7927   -0.3082    0.7110 C   0  0  0  0  0  0  0  0  0  0  0  0
   -9.9282    0.4494    1.4635 O   0  0  0  0  0  0  0  0  0  0  0  0
  -11.3676   -1.2320   -1.3533 O   0  0  0  0  0  0  0  0  0  0  0  0
   -6.6687   -2.1986   -1.9766 O   0  0  0  0  0  1  0  0  0  0  0  0
   -6.3866   -2.2968    0.5929 O   0  0  0  0  0  0  0  0  0  0  0  0
  1  2  1  0
  2  3  1  0
  3  4  1  0
  4  5  1  0
  5  6  1  0
  6  7  1  0
  7  8  1  0
  8  9  1  0
  9 10  1  0
 10 11  1  0
 11 12  1  0
 12 13  1  0
 13 14  1  0
 14 15  1  0
 15 16  1  0
 16 17  2  0
 16 18  1  0
 18 19  1  0
 19 20  1  1
 20 21  1  0
 19 22  1  0
 22 23  1  0
 23 24  1  0
 24 25  1  0
 25 26  1  0
 26 27  1  0
 27 28  1  0
 28 29  1  0
 27 30  1  6
 24 31  1  0
 24 32  2  0
M  CHG  1  31  -1
M  END

