
     RDKit          3D

 11 11  0  0  0  0  0  0  0  0999 V2000
    2.2151    0.4575    0.6221 C   0  0  0  0  0  0  0  0  0  0  0  0
    3.1920   -0.2274   -0.0807 O   0  0  0  0  0  0  0  0  0  0  0  0
    0.8314   -0.0833    0.4072 C   0  0  1  0  0  0  0  0  0  0  0  0
   -0.0449    0.6884    1.1634 O   0  0  0  0  0  0  0  0  0  0  0  0
   -1.2556    0.0487    1.3259 C   0  0  0  0  0  0  0  0  0  0  0  0
   -1.1192   -1.1045    2.0974 O   0  0  0  0  0  0  0  0  0  0  0  0
   -1.8627   -0.3306    0.0053 C   0  0  0  0  0  0  0  0  0  0  0  0
   -1.0501    0.2610   -1.1443 C   0  0  1  0  0  0  0  0  0  0  0  0
   -1.2368    1.6469   -1.0715 O   0  0  0  0  0  0  0  0  0  0  0  0
    0.4027   -0.1137   -1.0202 C   0  0  2  0  0  0  0  0  0  0  0  0
    0.6055   -1.3921   -1.5705 O   0  0  0  0  0  0  0  0  0  0  0  0
  1  2  1  0
  3  1  1  6
  3  4  1  0
  4  5  1  0
  5  6  1  0
  5  7  1  0
  7  8  1  0
  8  9  1  1
  8 10  1  0
 10 11  1  1
 10  3  1  0
M  END

