
     RDKit          3D

 15 14  0  0  0  0  0  0  0  0999 V2000
   -3.9401    0.4444    0.2170 C   0  0  0  0  0  0  0  0  0  0  0  0
   -2.5624    0.3267   -0.3617 C   0  0  0  0  0  0  0  0  0  0  0  0
   -1.6279   -0.2653    0.6487 C   0  0  2  0  0  0  0  0  0  0  0  0
   -0.2592   -0.4157    0.0800 C   0  0  1  0  0  0  0  0  0  0  0  0
    0.3690    0.7974   -0.4876 C   0  0  1  0  0  0  0  0  0  0  0  0
    1.8433    0.4607   -0.7661 C   0  0  0  0  0  0  0  0  0  0  0  0
    2.3664   -0.0694    0.3834 O   0  0  0  0  0  0  0  0  0  0  0  0
    3.9682   -0.5027    0.2856 P   0  0  0  0  0  5  0  0  0  0  0  0
    4.9707    0.8444   -0.0072 O   0  0  0  0  0  1  0  0  0  0  0  0
    4.2812   -1.6431   -0.9165 O   0  0  0  0  0  1  0  0  0  0  0  0
    4.3935   -1.0888    1.6120 O   0  0  0  0  0  0  0  0  0  0  0  0
   -0.2384    1.3393   -1.5855 O   0  0  0  0  0  0  0  0  0  0  0  0
    0.5354   -0.8844    1.1793 O   0  0  0  0  0  0  0  0  0  0  0  0
   -2.0956   -1.4966    1.1305 O   0  0  0  0  0  0  0  0  0  0  0  0
   -4.1088    0.0669    1.3613 O   0  0  0  0  0  0  0  0  0  0  0  0
  1  2  1  0
  2  3  1  0
  3  4  1  0
  4  5  1  0
  5  6  1  0
  6  7  1  0
  7  8  1  0
  8  9  1  0
  8 10  1  0
  8 11  2  0
  5 12  1  6
  4 13  1  1
  3 14  1  6
  1 15  2  0
M  CHG  2   9  -1  10  -1
M  END

