
     RDKit          3D

 27 26  0  0  0  0  0  0  0  0999 V2000
    9.6926    0.5580   -1.2028 C   0  0  0  0  0  0  0  0  0  0  0  0
    8.5566    1.2554   -0.5141 C   0  0  0  0  0  0  0  0  0  0  0  0
    7.2592    0.3925   -0.5852 C   0  0  0  0  0  0  0  0  0  0  0  0
    7.5762   -0.8822    0.0976 C   0  0  0  0  0  0  0  0  0  0  0  0
    6.6328   -1.9923    0.1307 C   0  0  0  0  0  0  0  0  0  0  0  0
    5.3089   -1.8350    0.7249 C   0  0  0  0  0  0  0  0  0  0  0  0
    4.3589   -0.9162    0.0514 C   0  0  0  0  0  0  0  0  0  0  0  0
    3.0551   -0.9739    0.8735 C   0  0  0  0  0  0  0  0  0  0  0  0
    2.0853   -0.0296    0.1933 C   0  0  0  0  0  0  0  0  0  0  0  0
    0.8020   -0.0744    0.9946 C   0  0  0  0  0  0  0  0  0  0  0  0
   -0.2707    0.8445    0.4328 C   0  0  0  0  0  0  0  0  0  0  0  0
   -1.4742    0.6785    1.3640 C   0  0  0  0  0  0  0  0  0  0  0  0
   -2.5922    1.5567    0.9132 C   0  0  0  0  0  0  0  0  0  0  0  0
   -3.7918    1.4476    1.7858 C   0  0  0  0  0  0  0  0  0  0  0  0
   -4.4174    0.1002    1.8835 C   0  0  0  0  0  0  0  0  0  0  0  0
   -4.8829   -0.3914    0.5336 C   0  0  0  0  0  0  0  0  0  0  0  0
   -4.2276   -1.2323   -0.1171 O   0  0  0  0  0  0  0  0  0  0  0  0
   -6.0596    0.0836   -0.0198 O   0  0  0  0  0  0  0  0  0  0  0  0
   -6.5646   -0.3306   -1.2720 C   0  0  1  0  0  0  0  0  0  0  0  0
   -8.0067   -0.7805   -0.9819 C   0  0  0  0  0  0  0  0  0  0  0  0
   -8.6479    0.3353   -0.4650 O   0  0  0  0  0  0  0  0  0  0  0  0
  -10.2465    0.1058   -0.0556 P   0  0  0  0  0  5  0  0  0  0  0  0
  -11.0828   -0.4900   -1.1370 O   0  0  0  0  0  0  0  0  0  0  0  0
  -10.8935    1.5884    0.5140 O   0  0  0  0  0  1  0  0  0  0  0  0
  -10.2963   -0.9601    1.2784 O   0  0  0  0  0  1  0  0  0  0  0  0
   -6.7152    0.8563   -2.2160 C   0  0  0  0  0  0  0  0  0  0  0  0
   -7.2084    0.3778   -3.4142 O   0  0  0  0  0  0  0  0  0  0  0  0
  1  2  1  0
  2  3  1  0
  3  4  1  0
  4  5  1  0
  5  6  1  0
  6  7  1  0
  7  8  1  0
  8  9  1  0
  9 10  1  0
 10 11  1  0
 11 12  1  0
 12 13  1  0
 13 14  1  0
 14 15  1  0
 15 16  1  0
 16 17  2  0
 16 18  1  0
 18 19  1  0
 19 20  1  1
 20 21  1  0
 21 22  1  0
 22 23  2  0
 22 24  1  0
 22 25  1  0
 19 26  1  0
 26 27  1  0
M  CHG  2  24  -1  25  -1
M  END

