
     RDKit          3D

 13 12  0  0  0  0  0  0  0  0999 V2000
   -1.0851    1.1707   -0.9874 C   0  0  0  0  0  0  0  0  0  0  0  0
   -1.0323    0.0485    0.0222 C   0  0  0  0  0  0  0  0  0  0  0  0
   -2.2365   -0.2756    0.7300 C   0  0  0  0  0  0  0  0  0  0  0  0
   -3.3556    0.5266    0.3812 O   0  0  0  0  0  1  0  0  0  0  0  0
   -2.4955   -1.1155    1.5847 O   0  0  0  0  0  0  0  0  0  0  0  0
    0.1261   -0.5187    0.1436 C   0  0  0  0  0  0  0  0  0  0  0  0
    1.2784   -0.0218   -0.7081 C   0  0  0  0  0  0  0  0  0  0  0  0
    2.3719    0.4714    0.1408 C   0  0  0  0  0  0  0  0  0  0  0  0
    3.5048    0.9616   -0.4686 O   0  0  0  0  0  1  0  0  0  0  0  0
    2.2386    0.4303    1.4038 O   0  0  0  0  0  0  0  0  0  0  0  0
    0.4023   -1.6003    1.0407 C   0  0  0  0  0  0  0  0  0  0  0  0
   -0.5218   -2.1608    1.8737 O   0  0  0  0  0  1  0  0  0  0  0  0
    1.5833   -2.1021    1.0936 O   0  0  0  0  0  0  0  0  0  0  0  0
  1  2  1  0
  2  3  1  0
  3  4  1  0
  3  5  2  0
  2  6  2  0
  6  7  1  0
  7  8  1  0
  8  9  1  0
  8 10  2  0
  6 11  1  0
 11 12  1  0
 11 13  2  0
M  CHG  3   4  -1   9  -1  12  -1
M  END

