
     RDKit          3D

 14 13  0  0  0  0  0  0  0  0999 V2000
   -1.5472    1.3192   -0.5013 C   0  0  0  0  0  0  0  0  0  0  0  0
   -1.1721   -0.1568   -0.5560 C   0  0  2  0  0  0  0  0  0  0  0  0
   -1.9317   -0.9062    0.4338 C   0  0  0  0  0  0  0  0  0  0  0  0
   -2.4743   -0.3496    1.4158 O   0  0  0  0  0  0  0  0  0  0  0  0
   -2.0781   -2.2751    0.3151 O   0  0  0  0  0  1  0  0  0  0  0  0
    0.3212   -0.2150   -0.4202 C   0  0  1  0  0  0  0  0  0  0  0  0
    0.8270    0.5201   -1.5129 O   0  0  0  0  0  0  0  0  0  0  0  0
    0.8030    0.3636    0.8889 C   0  0  0  0  0  0  0  0  0  0  0  0
    2.2635    0.3108    1.0304 C   0  0  0  0  0  0  0  0  0  0  0  0
    3.0389   -0.1712    0.1441 O   0  0  0  0  0  0  0  0  0  0  0  0
    2.8863    0.7982    2.1711 O   0  0  0  0  0  1  0  0  0  0  0  0
    0.8134   -1.6063   -0.5072 C   0  0  0  0  0  0  0  0  0  0  0  0
    0.5344   -2.4767    0.3409 O   0  0  0  0  0  0  0  0  0  0  0  0
    1.6221   -1.9837   -1.5689 O   0  0  0  0  0  1  0  0  0  0  0  0
  2  1  1  1
  2  3  1  0
  3  4  2  0
  3  5  1  0
  2  6  1  0
  6  7  1  6
  6  8  1  0
  8  9  1  0
  9 10  2  0
  9 11  1  0
  6 12  1  0
 12 13  2  0
 12 14  1  0
M  CHG  3   5  -1  11  -1  14  -1
M  END

