
     RDKit          3D

 13 12  0  0  0  0  0  0  0  0999 V2000
   -2.2422    0.7847    0.2883 C   0  0  0  0  0  0  0  0  0  0  0  0
   -1.0633    0.0144   -0.3091 C   0  0  2  0  0  0  0  0  0  0  0  0
   -0.8613    0.4254   -1.5981 O   0  0  0  0  0  0  0  0  0  0  0  0
   -1.5206   -1.4464   -0.2973 C   0  0  0  0  0  0  0  0  0  0  0  0
   -2.7726   -1.5807   -0.8609 O   0  0  0  0  0  0  0  0  0  0  0  0
    0.1446    0.1249    0.5516 C   0  0  2  0  0  0  0  0  0  0  0  0
   -0.1105    1.0169    1.6017 O   0  0  0  0  0  0  0  0  0  0  0  0
    1.3996    0.6398   -0.1134 C   0  0  0  0  0  0  0  0  0  0  0  0
    2.0820   -0.5134   -0.5885 O   0  0  0  0  0  0  0  0  0  0  0  0
    3.6974   -0.4194   -0.0283 P   0  0  0  0  0  5  0  0  0  0  0  0
    3.7244   -1.4149    1.3936 O   0  0  0  0  0  1  0  0  0  0  0  0
    4.7797   -0.9830   -1.1492 O   0  0  0  0  0  1  0  0  0  0  0  0
    4.0253    0.9668    0.3973 O   0  0  0  0  0  0  0  0  0  0  0  0
  2  1  1  1
  2  3  1  0
  2  4  1  0
  4  5  1  0
  2  6  1  0
  6  7  1  1
  6  8  1  0
  8  9  1  0
  9 10  1  0
 10 11  1  0
 10 12  1  0
 10 13  2  0
M  CHG  2  11  -1  12  -1
M  END

