
     RDKit          3D

 29 28  0  0  0  0  0  0  0  0999 V2000
    9.2750   -0.8013   -0.4973 C   0  0  0  0  0  0  0  0  0  0  0  0
    8.1847   -0.5754   -1.5071 C   0  0  0  0  0  0  0  0  0  0  0  0
    7.0409    0.2815   -0.8799 C   0  0  0  0  0  0  0  0  0  0  0  0
    6.5459   -0.5028    0.2732 C   0  0  0  0  0  0  0  0  0  0  0  0
    5.4867    0.0536    1.1119 C   0  0  0  0  0  0  0  0  0  0  0  0
    4.1118    0.2960    0.6036 C   0  0  0  0  0  0  0  0  0  0  0  0
    3.9149    1.2204   -0.5179 C   0  0  0  0  0  0  0  0  0  0  0  0
    2.5407    1.5855   -0.9161 C   0  0  0  0  0  0  0  0  0  0  0  0
    1.6231    0.5812   -1.4372 C   0  0  0  0  0  0  0  0  0  0  0  0
    1.1871   -0.5307   -0.5746 C   0  0  0  0  0  0  0  0  0  0  0  0
    0.5143   -0.0080    0.6793 C   0  0  0  0  0  0  0  0  0  0  0  0
   -0.7284    0.7973    0.3180 C   0  0  0  0  0  0  0  0  0  0  0  0
   -1.4255    1.3265    1.4852 C   0  0  0  0  0  0  0  0  0  0  0  0
   -1.9245    0.5096    2.5838 C   0  0  0  0  0  0  0  0  0  0  0  0
   -2.9253   -0.5345    2.5135 C   0  0  0  0  0  0  0  0  0  0  0  0
   -2.8465   -1.8275    1.8675 C   0  0  0  0  0  0  0  0  0  0  0  0
   -2.6468   -2.0280    0.4196 C   0  0  0  0  0  0  0  0  0  0  0  0
   -3.6610   -1.3734   -0.4298 C   0  0  0  0  0  0  0  0  0  0  0  0
   -3.6112   -1.4452   -1.7058 O   0  0  0  0  0  0  0  0  0  0  0  0
   -4.7324   -0.6405    0.0617 O   0  0  0  0  0  0  0  0  0  0  0  0
   -5.6682   -0.0386   -0.7726 C   0  0  1  0  0  0  0  0  0  0  0  0
   -7.0732   -0.5654   -0.5826 C   0  0  0  0  0  0  0  0  0  0  0  0
   -7.8863    0.1273   -1.4785 O   0  0  0  0  0  0  0  0  0  0  0  0
   -9.4926   -0.3455   -1.3920 P   0  0  0  0  0  5  0  0  0  0  0  0
   -9.8001   -1.1358   -0.1357 O   0  0  0  0  0  0  0  0  0  0  0  0
  -10.4430    1.0530   -1.3418 O   0  0  0  0  0  1  0  0  0  0  0  0
   -9.9482   -1.2161   -2.7756 O   0  0  0  0  0  1  0  0  0  0  0  0
   -5.7398    1.4697   -0.5750 C   0  0  0  0  0  0  0  0  0  0  0  0
   -6.6930    1.9652   -1.4457 O   0  0  0  0  0  0  0  0  0  0  0  0
  1  2  1  0
  2  3  1  0
  3  4  1  0
  4  5  1  0
  5  6  1  0
  6  7  1  0
  7  8  1  0
  8  9  1  0
  9 10  1  0
 10 11  1  0
 11 12  1  0
 12 13  1  0
 13 14  1  0
 14 15  1  0
 15 16  1  0
 16 17  1  0
 17 18  1  0
 18 19  2  0
 18 20  1  0
 20 21  1  0
 21 22  1  1
 22 23  1  0
 23 24  1  0
 24 25  2  0
 24 26  1  0
 24 27  1  0
 21 28  1  0
 28 29  1  0
M  CHG  2  26  -1  27  -1
M  END

