
     RDKit          3D

 51 51  0  0  0  0  0  0  0  0999 V2000
   11.6822    0.3851   -0.7720 C   0  0  0  0  0  0  0  0  0  0  0  0
   11.9049    0.3541    0.6801 C   0  0  0  0  0  0  0  0  0  0  0  0
   13.2505    0.9161    1.1396 C   0  0  0  0  0  0  0  0  0  0  0  0
   11.0974   -0.0854    1.5757 C   0  0  0  0  0  0  0  0  0  0  0  0
    9.7807   -0.6636    1.4649 C   0  0  0  0  0  0  0  0  0  0  0  0
    9.1669   -0.9463    0.1457 C   0  0  0  0  0  0  0  0  0  0  0  0
    7.7874   -1.5089    0.4317 C   0  0  0  0  0  0  0  0  0  0  0  0
    7.7258   -2.7848    1.2338 C   0  0  0  0  0  0  0  0  0  0  0  0
    6.7337   -0.8930   -0.0057 C   0  0  0  0  0  0  0  0  0  0  0  0
    6.7243    0.3445   -0.7779 C   0  0  0  0  0  0  0  0  0  0  0  0
    6.3026    0.2243   -2.2214 C   0  0  0  0  0  0  0  0  0  0  0  0
    4.9738   -0.2425   -2.5093 C   0  0  0  0  0  0  0  0  0  0  0  0
    4.5736   -1.6477   -2.0898 C   0  0  0  0  0  0  0  0  0  0  0  0
    4.0860    0.5044   -3.1708 C   0  0  0  0  0  0  0  0  0  0  0  0
    4.3668    1.8238   -3.6498 C   0  0  0  0  0  0  0  0  0  0  0  0
    3.4530    2.9512   -3.2228 C   0  0  0  0  0  0  0  0  0  0  0  0
    3.3110    3.1501   -1.7853 C   0  0  0  0  0  0  0  0  0  0  0  0
    4.5386    3.3611   -0.9116 C   0  0  0  0  0  0  0  0  0  0  0  0
    2.1399    3.1828   -1.1884 C   0  0  0  0  0  0  0  0  0  0  0  0
    0.8195    3.0495   -1.7598 C   0  0  0  0  0  0  0  0  0  0  0  0
   -0.1305    2.0653   -1.1746 C   0  0  0  0  0  0  0  0  0  0  0  0
    0.2303    0.6506   -1.2713 C   0  0  0  0  0  0  0  0  0  0  0  0
    0.3601    0.0757   -2.6886 C   0  0  0  0  0  0  0  0  0  0  0  0
    0.4036   -0.1120   -0.2385 C   0  0  0  0  0  0  0  0  0  0  0  0
    0.2828    0.2570    1.1802 C   0  0  0  0  0  0  0  0  0  0  0  0
   -0.9335   -0.5492    1.6977 C   0  0  0  0  0  0  0  0  0  0  0  0
   -2.1485   -0.1463    0.9790 C   0  0  0  0  0  0  0  0  0  0  0  0
   -2.6389    1.2745    1.0880 C   0  0  0  0  0  0  0  0  0  0  0  0
   -2.8294   -0.9863    0.2591 C   0  0  0  0  0  0  0  0  0  0  0  0
   -2.5777   -2.4176    0.0113 C   0  0  0  0  0  0  0  0  0  0  0  0
   -3.8267   -3.2357    0.4237 C   0  0  0  0  0  0  0  0  0  0  0  0
   -4.0425   -3.0075    1.8540 C   0  0  0  0  0  0  0  0  0  0  0  0
   -2.9340   -3.4347    2.7946 C   0  0  0  0  0  0  0  0  0  0  0  0
   -5.1382   -2.4594    2.3131 C   0  0  0  0  0  0  0  0  0  0  0  0
   -6.2532   -2.0150    1.4712 C   0  0  0  0  0  0  0  0  0  0  0  0
   -6.5075   -0.5122    1.5028 C   0  0  0  0  0  0  0  0  0  0  0  0
   -6.8584    0.0638    2.7866 C   0  0  0  0  0  0  0  0  0  0  0  0
   -5.8758    0.0409    3.9536 C   0  0  0  0  0  0  0  0  0  0  0  0
   -7.9927    0.6557    2.9985 C   0  0  0  0  0  0  0  0  0  0  0  0
   -9.1460    0.9287    2.1885 C   0  0  0  0  0  0  0  0  0  0  0  0
   -9.2870    0.5570    0.8124 C   0  0  0  0  0  0  0  0  0  0  0  0
   -9.6361   -0.7272    0.4423 C   0  0  0  0  0  0  0  0  0  0  0  0
   -9.8807   -1.7936    1.4653 C   0  0  0  0  0  0  0  0  0  0  0  0
   -9.7688   -1.0224   -0.8912 C   0  0  0  0  0  0  0  0  0  0  0  0
   -9.5641   -0.0730   -1.8775 C   0  0  0  0  0  0  0  0  0  0  0  0
   -9.2161    1.2125   -1.5354 C   0  0  0  0  0  0  0  0  0  0  0  0
   -9.0836    1.5061   -0.1986 C   0  0  0  0  0  0  0  0  0  0  0  0
   -8.7334    2.7966    0.1649 O   0  0  0  0  0  0  0  0  0  0  0  0
   -9.0064    2.1791   -2.4987 O   0  0  0  0  0  0  0  0  0  0  0  0
   -9.1601    1.8212   -3.8560 C   0  0  0  0  0  0  0  0  0  0  0  0
  -10.1181   -2.3067   -1.2724 O   0  0  0  0  0  0  0  0  0  0  0  0
  1  2  1  0
  2  3  1  0
  2  4  2  3
  4  5  1  0
  5  6  1  0
  6  7  1  0
  7  8  1  0
  7  9  2  0
  9 10  1  0
 10 11  1  0
 11 12  1  0
 12 13  1  0
 12 14  2  0
 14 15  1  0
 15 16  1  0
 16 17  1  0
 17 18  1  0
 17 19  2  0
 19 20  1  0
 20 21  1  0
 21 22  1  0
 22 23  1  0
 22 24  2  0
 24 25  1  0
 25 26  1  0
 26 27  1  0
 27 28  1  0
 27 29  2  0
 29 30  1  0
 30 31  1  0
 31 32  1  0
 32 33  1  0
 32 34  2  0
 34 35  1  0
 35 36  1  0
 36 37  1  0
 37 38  1  0
 37 39  2  0
 39 40  1  0
 40 41  1  0
 41 42  2  0
 42 43  1  0
 42 44  1  0
 44 45  2  0
 45 46  1  0
 46 47  2  0
 47 48  1  0
 46 49  1  0
 49 50  1  0
 44 51  1  0
 47 41  1  0
M  END

