
     RDKit          3D

 65 68  0  0  0  0  0  0  0  0999 V2000
   -7.0353    1.3980    0.9660 C   0  0  0  0  0  0  0  0  0  0  0  0
   -6.3712    0.0708    0.9352 C   0  0  0  0  0  0  0  0  0  0  0  0
   -6.4131   -0.4833    2.3685 C   0  0  0  0  0  0  0  0  0  0  0  0
   -4.9071    0.1917    0.5036 C   0  0  0  0  0  0  0  0  0  0  0  0
   -4.8228    0.7452   -0.7684 O   0  0  0  0  0  0  0  0  0  0  0  0
   -3.1972    0.8671   -1.2481 P   0  0  0  0  0  5  0  0  0  0  0  0
   -2.3668   -0.5501   -0.7888 O   0  0  0  0  0  0  0  0  0  0  0  0
   -1.3176   -0.2010    0.4740 P   0  0  0  0  0  5  0  0  0  0  0  0
    0.0750   -1.1672    0.3579 O   0  0  0  0  0  0  0  0  0  0  0  0
    1.1717   -0.3843    0.6259 C   0  0  0  0  0  0  0  0  0  0  0  0
    2.4905   -1.1234    0.5512 C   0  0  1  0  0  0  0  0  0  0  0  0
    2.7128   -1.6674   -0.7063 O   0  0  0  0  0  0  0  0  0  0  0  0
    4.1197   -1.8098   -0.7038 C   0  0  1  0  0  0  0  0  0  0  0  0
    4.6055   -2.2952   -1.9546 N   0  0  0  0  0  0  0  0  0  0  0  0
    5.3619   -3.3761   -2.1576 C   0  0  0  0  0  0  0  0  0  0  0  0
    5.6239   -3.5165   -3.5204 C   0  0  0  0  0  0  0  0  0  0  0  0
    5.0003   -2.4883   -4.1085 N   0  0  0  0  0  0  0  0  0  0  0  0
    4.3858   -1.7531   -3.1532 C   0  0  0  0  0  0  0  0  0  0  0  0
    6.3877   -4.5561   -4.0016 C   0  0  0  0  0  0  0  0  0  0  0  0
    6.6712   -4.7274   -5.3748 N   0  0  0  0  0  0  0  0  0  0  0  0
    6.8834   -5.4454   -3.1252 N   0  0  0  0  0  0  0  0  0  0  0  0
    6.6402   -5.3269   -1.7950 C   0  0  0  0  0  0  0  0  0  0  0  0
    5.8911   -4.3035   -1.3432 N   0  0  0  0  0  0  0  0  0  0  0  0
    4.4911   -0.3843   -0.3861 C   0  0  2  0  0  0  0  0  0  0  0  0
    5.7813   -0.0594   -0.2979 O   0  0  0  0  0  0  0  0  0  0  0  0
    6.2542    0.9475   -1.1025 C   0  0  2  0  0  0  0  0  0  0  0  0
    7.2947    0.3986   -2.0320 C   0  0  2  0  0  0  0  0  0  0  0  0
    7.5033   -0.9676   -1.9125 O   0  0  0  0  0  0  0  0  0  0  0  0
    8.5534    1.1789   -1.7141 C   0  0  2  0  0  0  0  0  0  0  0  0
    9.6037    0.2669   -1.6412 O   0  0  0  0  0  0  0  0  0  0  0  0
    8.2004    1.7813   -0.3959 C   0  0  1  0  0  0  0  0  0  0  0  0
    8.9655    2.9891    0.0062 C   0  0  0  0  0  0  0  0  0  0  0  0
    8.5415    3.3039    1.3186 O   0  0  0  0  0  0  0  0  0  0  0  0
    9.3181    4.6454    1.9462 P   0  0  0  0  0  5  0  0  0  0  0  0
    8.6060    6.0382    1.3493 O   0  0  0  0  0  1  0  0  0  0  0  0
   10.9536    4.5750    1.4981 O   0  0  0  0  0  0  0  0  0  0  0  0
   11.7293    3.2670    2.2064 P   0  0  0  0  0  5  0  0  0  0  0  0
   12.6520    2.3926    1.1236 O   0  0  0  0  0  1  0  0  0  0  0  0
   12.7088    3.8670    3.4675 O   0  0  0  0  0  0  0  0  0  0  0  0
   13.6651    2.5691    4.0152 P   0  0  0  0  0  5  0  0  0  0  0  0
   12.6850    1.3088    4.5826 O   0  0  0  0  0  1  0  0  0  0  0  0
   14.7273    3.0647    5.2073 O   0  0  0  0  0  1  0  0  0  0  0  0
   14.4444    2.0859    2.8051 O   0  0  0  0  0  0  0  0  0  0  0  0
   10.6560    2.3498    2.7794 O   0  0  0  0  0  0  0  0  0  0  0  0
    9.2432    4.6816    3.4604 O   0  0  0  0  0  0  0  0  0  0  0  0
    6.8330    1.9868   -0.3916 O   0  0  0  0  0  0  0  0  0  0  0  0
    3.6452   -0.1603    0.8378 C   0  0  2  0  0  0  0  0  0  0  0  0
    4.2263   -0.5592    2.0089 O   0  0  0  0  0  0  0  0  0  0  0  0
   -0.8700    1.2429    0.3286 O   0  0  0  0  0  0  0  0  0  0  0  0
   -2.0078   -0.4556    1.9943 O   0  0  0  0  0  1  0  0  0  0  0  0
   -2.6342    2.0955   -0.5930 O   0  0  0  0  0  0  0  0  0  0  0  0
   -3.0546    1.0066   -2.9225 O   0  0  0  0  0  1  0  0  0  0  0  0
   -7.0174   -0.8872   -0.0226 C   0  0  1  0  0  0  0  0  0  0  0  0
   -6.2474   -2.0904    0.0519 O   0  0  0  0  0  0  0  0  0  0  0  0
   -8.4282   -1.2081    0.2731 C   0  0  0  0  0  0  0  0  0  0  0  0
   -8.7099   -2.3959    0.6453 O   0  0  0  0  0  0  0  0  0  0  0  0
   -9.4647   -0.2575    0.1585 N   0  0  0  0  0  0  0  0  0  0  0  0
  -10.8320   -0.6943    0.4819 C   0  0  0  0  0  0  0  0  0  0  0  0
  -11.8274    0.4183    0.3485 C   0  0  0  0  0  0  0  0  0  0  0  0
  -13.2074   -0.0312    0.6723 C   0  0  0  0  0  0  0  0  0  0  0  0
  -13.3349   -1.2462    0.9636 O   0  0  0  0  0  0  0  0  0  0  0  0
  -14.2777    0.9003    0.6388 N   0  0  0  0  0  0  0  0  0  0  0  0
  -15.6046    0.4530    0.9463 C   0  0  0  0  0  0  0  0  0  0  0  0
  -16.0378   -0.5846   -0.0326 C   0  0  0  0  0  0  0  0  0  0  0  0
  -17.7285   -1.1183    0.4054 S   0  0  0  0  0  0  0  0  0  0  0  0
  1  2  1  0
  2  3  1  0
  2  4  1  0
  4  5  1  0
  5  6  1  0
  6  7  1  0
  7  8  1  0
  8  9  1  0
  9 10  1  0
 11 10  1  6
 11 12  1  0
 12 13  1  0
 13 14  1  6
 14 15  1  0
 15 16  2  0
 16 17  1  0
 17 18  2  0
 16 19  1  0
 19 20  1  0
 19 21  2  0
 21 22  1  0
 22 23  2  0
 13 24  1  0
 24 25  1  1
 26 25  1  1
 26 27  1  0
 27 28  1  1
 27 29  1  0
 29 30  1  1
 29 31  1  0
 31 32  1  6
 32 33  1  0
 33 34  1  0
 34 35  1  0
 34 36  1  0
 36 37  1  0
 37 38  1  0
 37 39  1  0
 39 40  1  0
 40 41  1  0
 40 42  1  0
 40 43  2  0
 37 44  2  0
 34 45  2  0
 31 46  1  0
 24 47  1  0
 47 48  1  1
  8 49  2  0
  8 50  1  0
  6 51  2  0
  6 52  1  0
  2 53  1  0
 53 54  1  1
 53 55  1  0
 55 56  2  0
 55 57  1  0
 57 58  1  0
 58 59  1  0
 59 60  1  0
 60 61  2  0
 60 62  1  0
 62 63  1  0
 63 64  1  0
 64 65  1  0
 18 14  1  0
 23 15  1  0
 46 26  1  0
 47 11  1  0
M  CHG  6  35  -1  38  -1  41  -1  42  -1  50  -1  52  -1
M  END

