
     RDKit          3D

 12 11  0  0  0  0  0  0  0  0999 V2000
   -2.0397    0.8425   -0.1132 C   0  0  0  0  0  0  0  0  0  0  0  0
   -0.9408   -0.1197   -0.5060 C   0  0  0  0  0  0  0  0  0  0  0  0
   -1.2967   -1.5431   -0.1219 C   0  0  0  0  0  0  0  0  0  0  0  0
    0.3740    0.2470    0.1585 C   0  0  1  0  0  0  0  0  0  0  0  0
    0.2138    0.2041    1.5354 O   0  0  0  0  0  0  0  0  0  0  0  0
    1.4375   -0.7345   -0.2656 C   0  0  0  0  0  0  0  0  0  0  0  0
    2.7448   -0.4325    0.3480 C   0  0  0  0  0  0  0  0  0  0  0  0
    2.8177    0.5565    1.1136 O   0  0  0  0  0  0  0  0  0  0  0  0
    3.8332   -1.2220    0.0758 O   0  0  0  0  0  1  0  0  0  0  0  0
    0.7425    1.6332   -0.2046 C   0  0  0  0  0  0  0  0  0  0  0  0
    0.8844    2.6580    0.7258 O   0  0  0  0  0  1  0  0  0  0  0  0
    0.9428    1.9251   -1.4086 O   0  0  0  0  0  0  0  0  0  0  0  0
  1  2  1  0
  2  3  1  0
  2  4  1  0
  4  5  1  1
  4  6  1  0
  6  7  1  0
  7  8  2  0
  7  9  1  0
  4 10  1  0
 10 11  1  0
 10 12  2  0
M  CHG  2   9  -1  11  -1
M  END

