
     RDKit          3D

 21 22  0  0  0  0  0  0  0  0999 V2000
   -2.6459   -1.9820    0.2274 C   0  0  0  0  0  0  0  0  0  0  0  0
   -3.9617   -1.4941    0.3775 O   0  0  0  0  0  0  0  0  0  0  0  0
   -1.7105   -0.8467    0.5574 C   0  0  2  0  0  0  0  0  0  0  0  0
   -1.8956    0.3326   -0.3777 C   0  0  2  0  0  0  0  0  0  0  0  0
   -0.4400    0.6297   -0.7628 C   0  0  2  0  0  0  0  0  0  0  0  0
    0.2616    0.0034    0.3907 C   0  0  2  0  0  0  0  0  0  0  0  0
    1.6735   -0.0914    0.2665 N   0  0  0  0  0  0  0  0  0  0  0  0
    2.3836   -0.3647    1.3979 C   0  0  0  0  0  0  0  0  0  0  0  0
    3.7240   -0.4757    1.3911 N   0  0  0  0  0  0  0  0  0  0  0  0
    4.4296   -0.3202    0.2549 C   0  0  0  0  0  0  0  0  0  0  0  0
    3.7218   -0.0436   -0.8957 C   0  0  0  0  0  0  0  0  0  0  0  0
    2.3432    0.0701   -0.8860 C   0  0  0  0  0  0  0  0  0  0  0  0
    5.8547   -0.4405    0.2589 N   0  0  0  0  0  0  0  0  0  0  0  0
    1.7735   -0.5226    2.5049 O   0  0  0  0  0  0  0  0  0  0  0  0
   -0.3814   -1.2462    0.4333 O   0  0  0  0  0  0  0  0  0  0  0  0
   -0.2130    1.9848   -0.9002 O   0  0  0  0  0  0  0  0  0  0  0  0
   -2.4297    1.3669    0.3785 O   0  0  0  0  0  0  0  0  0  0  0  0
   -3.8790    1.9461   -0.1708 P   0  0  0  0  0  5  0  0  0  0  0  0
   -3.8053    3.6487   -0.2890 O   0  0  0  0  0  1  0  0  0  0  0  0
   -4.9379    1.6622    0.8994 O   0  0  0  0  0  0  0  0  0  0  0  0
   -4.4163    1.2475   -1.5911 O   0  0  0  0  0  1  0  0  0  0  0  0
  1  2  1  0
  3  1  1  6
  3  4  1  0
  4  5  1  0
  5  6  1  0
  6  7  1  6
  7  8  1  0
  8  9  1  0
  9 10  2  0
 10 11  1  0
 11 12  2  0
 10 13  1  0
  8 14  2  0
  6 15  1  0
  5 16  1  1
  4 17  1  1
 17 18  1  0
 18 19  1  0
 18 20  2  0
 18 21  1  0
 12  7  1  0
 15  3  1  0
M  CHG  2  19  -1  21  -1
M  END

