
     RDKit          3D

 17 16  0  0  0  0  0  0  0  0999 V2000
    1.6698    0.5081    0.5148 C   0  0  0  0  0  0  0  0  0  0  0  0
    2.3900   -0.5534   -0.0108 O   0  0  0  0  0  0  0  0  0  0  0  0
    4.0285   -0.2707   -0.0934 P   0  0  0  0  0  5  0  0  0  0  0  0
    4.4549    0.2455   -1.6611 O   0  0  0  0  0  1  0  0  0  0  0  0
    4.8593   -1.7451    0.1574 O   0  0  0  0  0  1  0  0  0  0  0  0
    4.5173    0.7338    0.9164 O   0  0  0  0  0  0  0  0  0  0  0  0
    0.1868    0.2074    0.5711 C   0  0  2  0  0  0  0  0  0  0  0  0
    0.0479   -0.9229    1.3923 O   0  0  0  0  0  0  0  0  0  0  0  0
   -0.3733   -0.0568   -0.8120 C   0  0  2  0  0  0  0  0  0  0  0  0
   -1.8028   -0.3784   -0.7948 C   0  0  0  0  0  0  0  0  0  0  0  0
   -2.8619    0.5446   -0.2986 C   0  0  1  0  0  0  0  0  0  0  0  0
   -3.5980   -0.1584    0.7690 C   0  0  0  0  0  0  0  0  0  0  0  0
   -3.4597    0.2472    2.0772 O   0  0  0  0  0  1  0  0  0  0  0  0
   -4.3455   -1.1182    0.4971 O   0  0  0  0  0  0  0  0  0  0  0  0
   -2.3697    1.7492    0.1500 O   0  0  0  0  0  0  0  0  0  0  0  0
   -2.1897   -1.4624   -1.2054 O   0  0  0  0  0  0  0  0  0  0  0  0
    0.3514   -1.1257   -1.3359 O   0  0  0  0  0  0  0  0  0  0  0  0
  1  2  1  0
  2  3  1  0
  3  4  1  0
  3  5  1  0
  3  6  2  0
  1  7  1  0
  7  8  1  1
  7  9  1  0
  9 10  1  0
 10 11  1  0
 11 12  1  0
 12 13  1  0
 12 14  2  0
 11 15  1  1
 10 16  2  0
  9 17  1  1
M  CHG  3   4  -1   5  -1  13  -1
M  END

