
     RDKit          3D

 13 12  0  0  0  0  0  0  0  0999 V2000
   -2.2310    0.8477    0.6915 C   0  0  0  0  0  0  0  0  0  0  0  0
   -3.0288    1.6169   -0.1826 O   0  0  0  0  0  0  0  0  0  0  0  0
   -1.1020    0.2918   -0.1682 C   0  0  2  0  0  0  0  0  0  0  0  0
   -1.6797   -0.4724   -1.1593 O   0  0  0  0  0  0  0  0  0  0  0  0
   -0.1683   -0.5473    0.6895 C   0  0  1  0  0  0  0  0  0  0  0  0
   -0.8769   -1.5723    1.2793 O   0  0  0  0  0  0  0  0  0  0  0  0
    0.9659   -1.0577   -0.0917 C   0  0  0  0  0  0  0  0  0  0  0  0
    1.1585   -2.2604   -0.1398 O   0  0  0  0  0  0  0  0  0  0  0  0
    1.8871   -0.1499   -0.8263 C   0  0  2  0  0  0  0  0  0  0  0  0
    2.8835   -0.8555   -1.4932 O   0  0  0  0  0  0  0  0  0  0  0  0
    2.6017    0.7505    0.1463 C   0  0  0  0  0  0  0  0  0  0  0  0
    3.2567    1.7151   -0.2785 O   0  0  0  0  0  0  0  0  0  0  0  0
    2.5319    0.5071    1.5184 O   0  0  0  0  0  1  0  0  0  0  0  0
  1  2  1  0
  1  3  1  0
  3  4  1  6
  3  5  1  0
  5  6  1  6
  5  7  1  0
  7  8  2  0
  7  9  1  0
  9 10  1  1
  9 11  1  0
 11 12  2  0
 11 13  1  0
M  CHG  1  13  -1
M  END

