
     RDKit          3D

 13 13  0  0  0  0  0  0  0  0999 V2000
    2.4490    0.5720    0.5310 C   0  0  0  0  0  0  0  0  0  0  0  0
    2.8454    1.6055   -0.0904 O   0  0  0  0  0  0  0  0  0  0  0  0
    3.3076   -0.0255    1.4266 O   0  0  0  0  0  1  0  0  0  0  0  0
    1.1042    0.0018    0.3187 C   0  0  2  0  0  0  0  0  0  0  0  0
    0.9392   -1.1087    1.1150 O   0  0  0  0  0  0  0  0  0  0  0  0
    0.8709   -0.3504   -1.1461 C   0  0  0  0  0  0  0  0  0  0  0  0
   -0.3620   -1.1826   -1.1483 C   0  0  0  0  0  0  0  0  0  0  0  0
   -0.4037   -2.1872   -1.8276 O   0  0  0  0  0  0  0  0  0  0  0  0
   -1.4807   -0.7240   -0.3061 C   0  0  1  0  0  0  0  0  0  0  0  0
   -1.7325   -1.6162    0.7542 O   0  0  0  0  0  0  0  0  0  0  0  0
   -1.3203    0.6695    0.2034 C   0  0  2  0  0  0  0  0  0  0  0  0
   -1.7403    1.5957   -0.7522 O   0  0  0  0  0  0  0  0  0  0  0  0
    0.0479    1.0076    0.6923 C   0  0  0  0  0  0  0  0  0  0  0  0
  1  2  2  0
  1  3  1  0
  1  4  1  0
  4  5  1  1
  4  6  1  0
  6  7  1  0
  7  8  2  0
  7  9  1  0
  9 10  1  1
  9 11  1  0
 11 12  1  6
 11 13  1  0
 13  4  1  0
M  CHG  1   3  -1
M  END

