
     RDKit          3D

 12 12  0  0  0  0  0  0  0  0999 V2000
    2.6512    0.2269   -0.3798 C   0  0  0  0  0  0  0  0  0  0  0  0
    3.2991   -0.9146   -0.8217 O   0  0  0  0  0  1  0  0  0  0  0  0
    3.3604    1.2274   -0.1275 O   0  0  0  0  0  0  0  0  0  0  0  0
    1.2034    0.2280   -0.2264 C   0  0  0  0  0  0  0  0  0  0  0  0
    0.4416   -0.9944   -0.5457 C   0  0  0  0  0  0  0  0  0  0  0  0
   -0.7613   -1.0937    0.3880 C   0  0  1  0  0  0  0  0  0  0  0  0
   -0.3517   -0.9543    1.7232 O   0  0  0  0  0  0  0  0  0  0  0  0
   -1.6715    0.0731    0.0931 C   0  0  2  0  0  0  0  0  0  0  0  0
   -2.1311    0.0578   -1.2217 O   0  0  0  0  0  0  0  0  0  0  0  0
   -0.9123    1.3216    0.3549 C   0  0  0  0  0  0  0  0  0  0  0  0
   -1.5245    2.3840    0.7119 O   0  0  0  0  0  0  0  0  0  0  0  0
    0.5356    1.2947    0.1930 C   0  0  0  0  0  0  0  0  0  0  0  0
  1  2  1  0
  1  3  2  0
  1  4  1  0
  4  5  1  0
  5  6  1  0
  6  7  1  1
  6  8  1  0
  8  9  1  6
  8 10  1  0
 10 11  2  0
 10 12  1  0
 12  4  2  0
M  CHG  1   2  -1
M  END

