
     RDKit          3D

 58 60  0  0  0  0  0  0  0  0999 V2000
    3.6940    0.2581   -0.2155 C   0  0  0  0  0  0  0  0  0  0  0  0
    2.2636    0.1259    0.2137 C   0  0  0  0  0  0  0  0  0  0  0  0
    2.1520   -1.0011    1.2487 C   0  0  0  0  0  0  0  0  0  0  0  0
    1.7440    1.3970    0.8093 C   0  0  1  0  0  0  0  0  0  0  0  0
    0.3761    1.1688    1.1655 O   0  0  0  0  0  0  0  0  0  0  0  0
    2.4215    1.6746    2.1031 C   0  0  0  0  0  0  0  0  0  0  0  0
    1.7885    1.4910    3.1940 O   0  0  0  0  0  0  0  0  0  0  0  0
    3.7612    2.1489    2.2272 N   0  0  0  0  0  0  0  0  0  0  0  0
    4.3288    2.3926    3.5349 C   0  0  0  0  0  0  0  0  0  0  0  0
    4.4349    1.1562    4.3786 C   0  0  0  0  0  0  0  0  0  0  0  0
    5.3866    0.1428    3.7572 C   0  0  0  0  0  0  0  0  0  0  0  0
    6.0196    0.5460    2.7422 O   0  0  0  0  0  0  0  0  0  0  0  0
    5.4886   -1.1164    4.3378 N   0  0  0  0  0  0  0  0  0  0  0  0
    6.3405   -2.1764    3.9271 C   0  0  0  0  0  0  0  0  0  0  0  0
    7.7836   -1.8884    4.0976 C   0  0  0  0  0  0  0  0  0  0  0  0
    8.4385   -0.5514    3.1453 S   0  0  0  0  0  0  0  0  0  0  0  0
    8.5508   -0.9045    1.3837 C   0  0  0  0  0  0  0  0  0  0  0  0
    9.0870    0.1047    0.4629 C   0  0  0  0  0  0  0  0  0  0  0  0
    9.2124   -0.3399   -0.9491 C   0  0  2  0  0  0  0  0  0  0  0  0
    7.9487   -0.7581   -1.6204 C   0  0  0  0  0  0  0  0  0  0  0  0
    6.8846    0.2811   -1.7012 C   0  0  0  0  0  0  0  0  0  0  0  0
    7.2418    1.4973   -2.4374 C   0  0  0  0  0  0  0  0  0  0  0  0
    8.3594    1.6470   -2.9801 O   0  0  0  0  0  0  0  0  0  0  0  0
    6.2768    2.5072   -2.5177 O   0  0  0  0  0  1  0  0  0  0  0  0
   10.1125   -1.4204   -0.9994 O   0  0  0  0  0  0  0  0  0  0  0  0
    8.1824   -1.9779    0.9760 O   0  0  0  0  0  0  0  0  0  0  0  0
    1.4401   -0.3122   -0.9823 C   0  0  0  0  0  0  0  0  0  0  0  0
    0.0899   -0.4509   -0.6263 O   0  0  0  0  0  0  0  0  0  0  0  0
   -0.7764   -0.9429   -1.9927 P   0  0  0  0  0  5  0  0  0  0  0  0
   -0.4564   -2.4176   -2.2234 O   0  0  0  0  0  0  0  0  0  0  0  0
   -2.4454   -0.8630   -1.7108 O   0  0  0  0  0  0  0  0  0  0  0  0
   -3.1274    0.4699   -2.4936 P   0  0  0  0  0  5  0  0  0  0  0  0
   -2.6903    1.7490   -1.8139 O   0  0  0  0  0  0  0  0  0  0  0  0
   -4.8137    0.3875   -2.4315 O   0  0  0  0  0  0  0  0  0  0  0  0
   -5.2859   -0.6663   -3.2164 C   0  0  0  0  0  0  0  0  0  0  0  0
   -6.7963   -0.7550   -3.1730 C   0  0  2  0  0  0  0  0  0  0  0  0
   -7.3765    0.5328   -3.6512 C   0  0  1  0  0  0  0  0  0  0  0  0
   -8.4459    0.3210   -4.5521 O   0  0  0  0  0  0  0  0  0  0  0  0
   -8.2202    1.1620   -5.9813 P   0  0  0  0  0  5  0  0  0  0  0  0
   -6.6452    1.7511   -6.1311 O   0  0  0  0  0  1  0  0  0  0  0  0
   -8.5764    0.2661   -7.1594 O   0  0  0  0  0  0  0  0  0  0  0  0
   -9.2764    2.4846   -5.9940 O   0  0  0  0  0  1  0  0  0  0  0  0
   -7.9996    1.0964   -2.3915 C   0  0  1  0  0  0  0  0  0  0  0  0
   -9.1583    1.8160   -2.6838 O   0  0  0  0  0  0  0  0  0  0  0  0
   -8.3105   -0.1795   -1.6374 C   0  0  1  0  0  0  0  0  0  0  0  0
   -7.1839   -0.9587   -1.8707 O   0  0  0  0  0  0  0  0  0  0  0  0
   -8.5587    0.0442   -0.2455 N   0  0  0  0  0  0  0  0  0  0  0  0
   -9.5162   -0.5770    0.4776 C   0  0  0  0  0  0  0  0  0  0  0  0
  -10.4626   -1.5048    0.2085 N   0  0  0  0  0  0  0  0  0  0  0  0
  -11.2886   -1.9292    1.1809 C   0  0  0  0  0  0  0  0  0  0  0  0
  -11.1830   -1.4323    2.4428 N   0  0  0  0  0  0  0  0  0  0  0  0
  -10.2616   -0.5174    2.7409 C   0  0  0  0  0  0  0  0  0  0  0  0
   -9.4095   -0.0728    1.7593 C   0  0  0  0  0  0  0  0  0  0  0  0
   -8.3975    0.8333    1.7774 N   0  0  0  0  0  0  0  0  0  0  0  0
   -7.8769    0.9017    0.5396 C   0  0  0  0  0  0  0  0  0  0  0  0
  -10.1440    0.0129    4.0758 N   0  0  0  0  0  0  0  0  0  0  0  0
   -2.6144    0.5246   -4.1214 O   0  0  0  0  0  1  0  0  0  0  0  0
   -0.3043   -0.1011   -3.3607 O   0  0  0  0  0  1  0  0  0  0  0  0
  1  2  1  0
  2  3  1  0
  2  4  1  0
  4  5  1  1
  4  6  1  0
  6  7  2  0
  6  8  1  0
  8  9  1  0
  9 10  1  0
 10 11  1  0
 11 12  2  0
 11 13  1  0
 13 14  1  0
 14 15  1  0
 15 16  1  0
 16 17  1  0
 17 18  1  0
 18 19  1  0
 19 20  1  0
 20 21  1  0
 21 22  1  0
 22 23  2  0
 22 24  1  0
 19 25  1  1
 17 26  2  0
  2 27  1  0
 27 28  1  0
 28 29  1  0
 29 30  2  0
 29 31  1  0
 31 32  1  0
 32 33  2  0
 32 34  1  0
 34 35  1  0
 36 35  1  1
 36 37  1  0
 37 38  1  6
 38 39  1  0
 39 40  1  0
 39 41  2  0
 39 42  1  0
 37 43  1  0
 43 44  1  6
 43 45  1  0
 45 46  1  0
 45 47  1  1
 47 48  1  0
 48 49  2  0
 49 50  1  0
 50 51  2  0
 51 52  1  0
 52 53  2  0
 53 54  1  0
 54 55  2  0
 52 56  1  0
 32 57  1  0
 29 58  1  0
 46 36  1  0
 55 47  1  0
 53 48  1  0
M  CHG  5  24  -1  40  -1  42  -1  57  -1  58  -1
M  END

