
     RDKit          3D

 54 56  0  0  0  0  0  0  0  0999 V2000
   13.6277   -2.2957    0.7353 C   0  0  0  0  0  0  0  0  0  0  0  0
   14.0727   -0.9197    0.3741 C   0  0  1  0  0  0  0  0  0  0  0  0
   12.9956   -0.1163   -0.2364 C   0  0  0  0  0  0  0  0  0  0  0  0
   11.8230    0.0441    0.6993 C   0  0  0  0  0  0  0  0  0  0  0  0
   10.6051    1.2457    0.2668 S   0  0  0  0  0  0  0  0  0  0  0  0
    9.3189    1.5780    1.4014 C   0  0  0  0  0  0  0  0  0  0  0  0
    8.2822    0.4506    1.6046 C   0  0  0  0  0  0  0  0  0  0  0  0
    7.7205    0.1000    0.5072 N   0  0  0  0  0  0  0  0  0  0  0  0
    7.0976   -0.2908   -0.7147 C   0  0  0  0  0  0  0  0  0  0  0  0
    7.6442   -0.8095   -1.6766 O   0  0  0  0  0  0  0  0  0  0  0  0
    5.6187   -0.0249   -0.7818 C   0  0  0  0  0  0  0  0  0  0  0  0
    5.0697   -0.7760   -1.9633 C   0  0  0  0  0  0  0  0  0  0  0  0
    3.6595   -0.5693   -2.0875 N   0  0  0  0  0  0  0  0  0  0  0  0
    2.7147   -0.8885   -1.0910 C   0  0  0  0  0  0  0  0  0  0  0  0
    3.1017   -1.3736   -0.0080 O   0  0  0  0  0  0  0  0  0  0  0  0
    1.2846   -0.6693   -1.3003 C   0  0  2  0  0  0  0  0  0  0  0  0
    1.0446   -0.3174   -2.6714 O   0  0  0  0  0  0  0  0  0  0  0  0
    0.7165    0.5167   -0.5307 C   0  0  0  0  0  0  0  0  0  0  0  0
    0.9140    0.3935    0.9551 C   0  0  0  0  0  0  0  0  0  0  0  0
    1.1909    1.8360   -1.0153 C   0  0  0  0  0  0  0  0  0  0  0  0
   -0.8232    0.3767   -0.7355 C   0  0  0  0  0  0  0  0  0  0  0  0
   -1.1267   -0.8547   -0.1924 O   0  0  0  0  0  0  0  0  0  0  0  0
   -2.7463   -1.2751   -0.2751 P   0  0  0  0  0  5  0  0  0  0  0  0
   -3.2031   -1.4711   -1.7267 O   0  0  0  0  0  0  0  0  0  0  0  0
   -3.7228   -0.0456    0.3710 O   0  0  0  0  0  0  0  0  0  0  0  0
   -5.1444   -0.7624    0.9491 P   0  0  0  0  0  5  0  0  0  0  0  0
   -5.2479   -2.1857    0.4787 O   0  0  0  0  0  0  0  0  0  0  0  0
   -6.5045    0.1497    0.5291 O   0  0  0  0  0  0  0  0  0  0  0  0
   -6.3936    0.5553   -0.7923 C   0  0  0  0  0  0  0  0  0  0  0  0
   -7.5972    1.3920   -1.2008 C   0  0  2  0  0  0  0  0  0  0  0  0
   -7.6633    2.5739   -0.2504 C   0  0  1  0  0  0  0  0  0  0  0  0
   -8.3899    3.6272   -0.8145 O   0  0  0  0  0  0  0  0  0  0  0  0
   -7.5306    5.0545   -0.9217 P   0  0  0  0  0  5  0  0  0  0  0  0
   -7.5301    5.8053    0.5942 O   0  0  0  0  0  1  0  0  0  0  0  0
   -8.1833    6.0329   -1.8977 O   0  0  0  0  0  0  0  0  0  0  0  0
   -5.9086    4.7864   -1.3303 O   0  0  0  0  0  1  0  0  0  0  0  0
   -8.4955    2.0030    0.8657 C   0  0  1  0  0  0  0  0  0  0  0  0
   -9.2883    3.0441    1.3549 O   0  0  0  0  0  0  0  0  0  0  0  0
   -9.2910    0.9454    0.1745 C   0  0  1  0  0  0  0  0  0  0  0  0
   -8.7462    0.6762   -1.0484 O   0  0  0  0  0  0  0  0  0  0  0  0
   -9.4620   -0.2450    0.9898 N   0  0  0  0  0  0  0  0  0  0  0  0
   -9.8273   -1.4239    0.4735 C   0  0  0  0  0  0  0  0  0  0  0  0
  -10.1180   -1.8481   -0.7861 N   0  0  0  0  0  0  0  0  0  0  0  0
  -10.4702   -3.1116   -1.0626 C   0  0  0  0  0  0  0  0  0  0  0  0
  -10.5346   -3.9868   -0.0392 N   0  0  0  0  0  0  0  0  0  0  0  0
  -10.2630   -3.6494    1.2363 C   0  0  0  0  0  0  0  0  0  0  0  0
   -9.8998   -2.3339    1.4983 C   0  0  0  0  0  0  0  0  0  0  0  0
   -9.5705   -1.6686    2.6099 N   0  0  0  0  0  0  0  0  0  0  0  0
   -9.2991   -0.3851    2.3063 C   0  0  0  0  0  0  0  0  0  0  0  0
  -10.3145   -4.5387    2.3330 N   0  0  0  0  0  0  0  0  0  0  0  0
   -5.0591   -0.8131    2.6424 O   0  0  0  0  0  1  0  0  0  0  0  0
   -3.0347   -2.7364    0.5333 O   0  0  0  0  0  1  0  0  0  0  0  0
   11.7822   -0.6528    1.6892 O   0  0  0  0  0  0  0  0  0  0  0  0
   14.6258   -0.2946    1.5048 O   0  0  0  0  0  0  0  0  0  0  0  0
  2  1  1  1
  2  3  1  0
  3  4  1  0
  4  5  1  0
  5  6  1  0
  6  7  1  0
  7  8  1  0
  8  9  1  0
  9 10  2  0
  9 11  1  0
 11 12  1  0
 12 13  1  0
 13 14  1  0
 14 15  2  0
 14 16  1  0
 16 17  1  6
 16 18  1  0
 18 19  1  0
 18 20  1  0
 18 21  1  0
 21 22  1  0
 22 23  1  0
 23 24  2  0
 23 25  1  0
 25 26  1  0
 26 27  2  0
 26 28  1  0
 28 29  1  0
 30 29  1  1
 30 31  1  0
 31 32  1  6
 32 33  1  0
 33 34  1  0
 33 35  2  0
 33 36  1  0
 31 37  1  0
 37 38  1  6
 37 39  1  0
 39 40  1  0
 39 41  1  1
 41 42  1  0
 42 43  2  0
 43 44  1  0
 44 45  2  0
 45 46  1  0
 46 47  2  0
 47 48  1  0
 48 49  2  0
 46 50  1  0
 26 51  1  0
 23 52  1  0
  4 53  2  0
  2 54  1  0
 40 30  1  0
 49 41  1  0
 47 42  1  0
M  CHG  4  34  -1  36  -1  51  -1  52  -1
M  END

