
     RDKit          3D

 60 62  0  0  0  0  0  0  0  0999 V2000
  -15.4142    0.6938    1.1209 C   0  0  0  0  0  0  0  0  0  0  0  0
  -15.5400    2.1815    1.0837 C   0  0  0  0  0  0  0  0  0  0  0  0
  -14.7288    2.9035    0.0856 C   0  0  0  0  0  0  0  0  0  0  0  0
  -13.2617    2.8044    0.1514 C   0  0  0  0  0  0  0  0  0  0  0  0
  -12.6369    1.4707   -0.0718 C   0  0  0  0  0  0  0  0  0  0  0  0
  -12.9302    0.9423   -1.4547 C   0  0  0  0  0  0  0  0  0  0  0  0
  -12.3239   -0.4022   -1.6460 C   0  0  0  0  0  0  0  0  0  0  0  0
  -10.8322   -0.3431   -1.4783 C   0  0  1  0  0  0  0  0  0  0  0  0
  -10.2869   -1.7611   -1.7189 C   0  0  0  0  0  0  0  0  0  0  0  0
   -8.8180   -1.8033   -1.5739 C   0  0  0  0  0  0  0  0  0  0  0  0
   -7.7643   -2.3944   -2.9194 S   0  0  0  0  0  0  0  0  0  0  0  0
   -6.0195   -2.3851   -2.3866 C   0  0  0  0  0  0  0  0  0  0  0  0
   -5.9161   -3.4696   -1.3151 C   0  0  0  0  0  0  0  0  0  0  0  0
   -4.5786   -3.5905   -0.7871 N   0  0  0  0  0  0  0  0  0  0  0  0
   -3.9304   -2.5218   -0.1247 C   0  0  0  0  0  0  0  0  0  0  0  0
   -4.5335   -1.4341    0.0143 O   0  0  0  0  0  0  0  0  0  0  0  0
   -2.5641   -2.7054    0.3886 C   0  0  0  0  0  0  0  0  0  0  0  0
   -2.0380   -1.5247    1.1339 C   0  0  0  0  0  0  0  0  0  0  0  0
   -0.6874   -1.7679    1.6006 N   0  0  0  0  0  0  0  0  0  0  0  0
    0.0391   -0.8088    2.3519 C   0  0  0  0  0  0  0  0  0  0  0  0
   -0.5775    0.2873    2.5995 O   0  0  0  0  0  0  0  0  0  0  0  0
    1.4127   -0.9799    2.8555 C   0  0  2  0  0  0  0  0  0  0  0  0
    1.7100    0.0987    3.7402 O   0  0  0  0  0  0  0  0  0  0  0  0
    2.4587   -0.9542    1.7287 C   0  0  0  0  0  0  0  0  0  0  0  0
    2.4023    0.3464    0.9974 C   0  0  0  0  0  0  0  0  0  0  0  0
    2.2995   -2.1730    0.8687 C   0  0  0  0  0  0  0  0  0  0  0  0
    3.7954   -1.0737    2.4403 C   0  0  0  0  0  0  0  0  0  0  0  0
    4.8541   -1.0604    1.5512 O   0  0  0  0  0  0  0  0  0  0  0  0
    6.2855   -1.2000    2.4298 P   0  0  0  0  0  5  0  0  0  0  0  0
    5.9593   -2.0032    3.6908 O   0  0  0  0  0  0  0  0  0  0  0  0
    6.8270    0.3218    2.8654 O   0  0  0  0  0  0  0  0  0  0  0  0
    8.4432    0.5736    2.4335 P   0  0  0  0  0  5  0  0  0  0  0  0
    9.2169   -0.7486    2.4081 O   0  0  0  0  0  0  0  0  0  0  0  0
    8.5982    1.4129    0.9987 O   0  0  0  0  0  0  0  0  0  0  0  0
    8.7660    0.5871   -0.1015 C   0  0  0  0  0  0  0  0  0  0  0  0
    8.8996    1.3699   -1.3727 C   0  0  1  0  0  0  0  0  0  0  0  0
    9.9440    2.2373   -1.4134 O   0  0  0  0  0  0  0  0  0  0  0  0
   11.0452    1.5996   -1.8787 C   0  0  2  0  0  0  0  0  0  0  0  0
   10.6052    0.3642   -2.5830 C   0  0  1  0  0  0  0  0  0  0  0  0
    9.0842    0.4791   -2.5812 C   0  0  2  0  0  0  0  0  0  0  0  0
    8.6894    1.1112   -3.7552 O   0  0  0  0  0  0  0  0  0  0  0  0
    7.5721    0.1372   -4.5880 P   0  0  0  0  0  5  0  0  0  0  0  0
    7.6658   -1.4220   -3.9469 O   0  0  0  0  0  1  0  0  0  0  0  0
    6.1414    0.6239   -4.3357 O   0  0  0  0  0  0  0  0  0  0  0  0
    7.9079    0.0753   -6.2407 O   0  0  0  0  0  1  0  0  0  0  0  0
   11.0945    0.3916   -3.8956 O   0  0  0  0  0  0  0  0  0  0  0  0
   12.0491    1.3633   -0.8449 N   0  0  0  0  0  0  0  0  0  0  0  0
   12.8486    2.3435   -0.3959 C   0  0  0  0  0  0  0  0  0  0  0  0
   12.9713    3.6459   -0.6924 N   0  0  0  0  0  0  0  0  0  0  0  0
   13.8990    4.4160   -0.0550 C   0  0  0  0  0  0  0  0  0  0  0  0
   14.7053    3.8901    0.8775 N   0  0  0  0  0  0  0  0  0  0  0  0
   14.6092    2.5905    1.1982 C   0  0  0  0  0  0  0  0  0  0  0  0
   13.6691    1.7937    0.5579 C   0  0  0  0  0  0  0  0  0  0  0  0
   13.3503    0.5129    0.6612 N   0  0  0  0  0  0  0  0  0  0  0  0
   12.3390    0.2445   -0.2147 C   0  0  0  0  0  0  0  0  0  0  0  0
   15.4610    2.0369    2.1838 N   0  0  0  0  0  0  0  0  0  0  0  0
    9.1407    1.5082    3.6630 O   0  0  0  0  0  1  0  0  0  0  0  0
    7.4578   -2.0786    1.5877 O   0  0  0  0  0  1  0  0  0  0  0  0
   -8.2952   -1.4357   -0.5397 O   0  0  0  0  0  0  0  0  0  0  0  0
  -10.2339    0.5676   -2.3140 O   0  0  0  0  0  0  0  0  0  0  0  0
  1  2  1  0
  2  3  1  0
  3  4  1  0
  4  5  1  0
  5  6  1  0
  6  7  1  0
  7  8  1  0
  8  9  1  0
  9 10  1  0
 10 11  1  0
 11 12  1  0
 12 13  1  0
 13 14  1  0
 14 15  1  0
 15 16  2  0
 15 17  1  0
 17 18  1  0
 18 19  1  0
 19 20  1  0
 20 21  2  0
 20 22  1  0
 22 23  1  1
 22 24  1  0
 24 25  1  0
 24 26  1  0
 24 27  1  0
 27 28  1  0
 28 29  1  0
 29 30  2  0
 29 31  1  0
 31 32  1  0
 32 33  2  0
 32 34  1  0
 34 35  1  0
 36 35  1  1
 36 37  1  0
 37 38  1  0
 38 39  1  0
 39 40  1  0
 40 41  1  6
 41 42  1  0
 42 43  1  0
 42 44  2  0
 42 45  1  0
 39 46  1  6
 38 47  1  1
 47 48  1  0
 48 49  2  0
 49 50  1  0
 50 51  2  0
 51 52  1  0
 52 53  2  0
 53 54  1  0
 54 55  2  0
 52 56  1  0
 32 57  1  0
 29 58  1  0
 10 59  2  0
  8 60  1  6
 40 36  1  0
 55 47  1  0
 53 48  1  0
M  CHG  4  43  -1  45  -1  57  -1  58  -1
M  END

