
     RDKit          3D

  5  4  0  0  0  0  0  0  0  0999 V2000
   -0.1650   -0.4493   -0.2054 C   0  0  0  0  0  0  0  0  0  0  0  0
   -1.5933   -0.1487   -0.0575 C   0  0  0  0  0  0  0  0  0  0  0  0
   -2.3959   -1.0139   -0.3507 O   0  0  0  0  0  0  0  0  0  0  0  0
    0.7295    0.6989    0.1883 C   0  0  0  0  0  0  0  0  0  0  0  0
    2.0598    0.3188    0.0139 O   0  0  0  0  0  0  0  0  0  0  0  0
  1  2  1  0
  2  3  2  0
  1  4  1  0
  4  5  1  0
M  END

