
     RDKit          3D

 12 12  0  0  0  0  0  0  0  0999 V2000
   -3.5088   -0.2254    0.8238 C   0  0  0  0  0  0  0  0  0  0  0  0
   -2.0733   -0.5521    0.8350 C   0  0  0  0  0  0  0  0  0  0  0  0
   -1.3707    0.3913   -0.1139 C   0  0  0  0  0  0  0  0  0  0  0  0
    0.0883    0.1477   -0.1790 C   0  0  0  0  0  0  0  0  0  0  0  0
    0.9691    0.7883    0.6659 C   0  0  0  0  0  0  0  0  0  0  0  0
    2.3351    0.5703    0.6169 C   0  0  0  0  0  0  0  0  0  0  0  0
    2.7987   -0.3263   -0.3230 C   0  0  0  0  0  0  0  0  0  0  0  0
    1.9253   -0.9779   -1.1792 C   0  0  0  0  0  0  0  0  0  0  0  0
    0.5497   -0.7488   -1.1189 C   0  0  0  0  0  0  0  0  0  0  0  0
    3.2422    1.2019    1.4554 O   0  0  0  0  0  0  0  0  0  0  0  0
   -4.3167   -0.8731    1.5367 O   0  0  0  0  0  0  0  0  0  0  0  0
   -4.0319    0.7978    0.0378 O   0  0  0  0  0  1  0  0  0  0  0  0
  1  2  1  0
  2  3  1  0
  3  4  1  0
  4  5  2  0
  5  6  1  0
  6  7  2  0
  7  8  1  0
  8  9  2  0
  6 10  1  0
  1 11  2  0
  1 12  1  0
  9  4  1  0
M  CHG  1  12  -1
M  END

