
     RDKit          3D

 62 64  0  0  0  0  0  0  0  0999 V2000
   17.5854    4.0784    1.8737 C   0  0  0  0  0  0  0  0  0  0  0  0
   16.3409    3.6972    1.1130 C   0  0  0  0  0  0  0  0  0  0  0  0
   16.2021    2.1817    1.0045 C   0  0  0  0  0  0  0  0  0  0  0  0
   14.9260    1.9033    0.2421 C   0  0  0  0  0  0  0  0  0  0  0  0
   14.7299    0.4121    0.0773 C   0  0  0  0  0  0  0  0  0  0  0  0
   13.4144    0.2193   -0.6936 C   0  0  0  0  0  0  0  0  0  0  0  0
   13.1490   -1.2260   -0.9352 C   0  0  0  0  0  0  0  0  0  0  0  0
   11.9017   -1.5411   -1.6786 C   0  0  0  0  0  0  0  0  0  0  0  0
   10.6086   -1.1832   -1.0707 C   0  0  0  0  0  0  0  0  0  0  0  0
   10.3589    0.2544   -0.8325 C   0  0  0  0  0  0  0  0  0  0  0  0
   10.6075    1.1027   -1.6653 O   0  0  0  0  0  0  0  0  0  0  0  0
    9.7793    0.6847    0.4840 C   0  0  0  0  0  0  0  0  0  0  0  0
    8.2936    0.3929    0.4256 C   0  0  0  0  0  0  0  0  0  0  0  0
    7.7821    0.3102   -0.6645 O   0  0  0  0  0  0  0  0  0  0  0  0
    7.4646    0.1958    1.9642 S   0  0  0  0  0  0  0  0  0  0  0  0
    5.7110   -0.1349    1.6981 C   0  0  0  0  0  0  0  0  0  0  0  0
    5.5182   -1.4009    0.8942 C   0  0  0  0  0  0  0  0  0  0  0  0
    4.1536   -1.7761    0.7004 N   0  0  0  0  0  0  0  0  0  0  0  0
    3.1688   -0.9732    0.0904 C   0  0  0  0  0  0  0  0  0  0  0  0
    3.3796    0.1755   -0.3536 O   0  0  0  0  0  0  0  0  0  0  0  0
    1.7835   -1.5621   -0.0124 C   0  0  0  0  0  0  0  0  0  0  0  0
    0.8358   -0.4538   -0.3248 C   0  0  0  0  0  0  0  0  0  0  0  0
   -0.5463   -0.8404   -0.4453 N   0  0  0  0  0  0  0  0  0  0  0  0
   -1.2162   -1.4501    0.6309 C   0  0  0  0  0  0  0  0  0  0  0  0
   -0.4924   -1.6234    1.6957 O   0  0  0  0  0  0  0  0  0  0  0  0
   -2.5971   -1.9088    0.7032 C   0  0  2  0  0  0  0  0  0  0  0  0
   -2.8730   -2.5739    1.9051 O   0  0  0  0  0  0  0  0  0  0  0  0
   -3.1387   -2.7055   -0.4231 C   0  0  0  0  0  0  0  0  0  0  0  0
   -2.2956   -3.9628   -0.6674 C   0  0  0  0  0  0  0  0  0  0  0  0
   -3.3170   -1.9951   -1.7221 C   0  0  0  0  0  0  0  0  0  0  0  0
   -4.5202   -3.2194    0.0962 C   0  0  0  0  0  0  0  0  0  0  0  0
   -5.3007   -2.1297    0.3900 O   0  0  0  0  0  0  0  0  0  0  0  0
   -6.8105   -2.5581    1.0018 P   0  0  0  0  0  5  0  0  0  0  0  0
   -7.3505   -1.3176    1.7210 O   0  0  0  0  0  0  0  0  0  0  0  0
   -7.8762   -3.1392   -0.1501 O   0  0  0  0  0  0  0  0  0  0  0  0
   -9.4864   -2.8783    0.2987 P   0  0  0  0  0  5  0  0  0  0  0  0
   -9.6101   -2.3680    1.7178 O   0  0  0  0  0  0  0  0  0  0  0  0
  -10.2373   -1.7549   -0.7173 O   0  0  0  0  0  0  0  0  0  0  0  0
   -9.7664   -0.4607   -0.4570 C   0  0  0  0  0  0  0  0  0  0  0  0
  -10.4891    0.4731   -1.3992 C   0  0  2  0  0  0  0  0  0  0  0  0
  -10.2087    1.9362   -1.0086 C   0  0  1  0  0  0  0  0  0  0  0  0
   -8.9530    2.3190   -1.4727 O   0  0  0  0  0  0  0  0  0  0  0  0
   -7.9589    2.7366   -0.2040 P   0  0  0  0  0  5  0  0  0  0  0  0
   -8.0341    1.6810    1.1020 O   0  0  0  0  0  1  0  0  0  0  0  0
   -6.5158    2.6565   -0.7290 O   0  0  0  0  0  0  0  0  0  0  0  0
   -8.1510    4.3379    0.3099 O   0  0  0  0  0  1  0  0  0  0  0  0
  -11.3347    2.6241   -1.7392 C   0  0  1  0  0  0  0  0  0  0  0  0
  -10.8897    2.8867   -3.0320 O   0  0  0  0  0  0  0  0  0  0  0  0
  -12.3770    1.5530   -1.8123 C   0  0  1  0  0  0  0  0  0  0  0  0
  -11.8671    0.4242   -1.2218 O   0  0  0  0  0  0  0  0  0  0  0  0
  -13.5970    2.0209   -1.1840 N   0  0  0  0  0  0  0  0  0  0  0  0
  -14.4214    1.2754   -0.4273 C   0  0  0  0  0  0  0  0  0  0  0  0
  -14.3847   -0.0081   -0.0471 N   0  0  0  0  0  0  0  0  0  0  0  0
  -15.3694   -0.4784    0.7268 C   0  0  0  0  0  0  0  0  0  0  0  0
  -16.3661    0.3334    1.1059 N   0  0  0  0  0  0  0  0  0  0  0  0
  -16.4508    1.6191    0.7558 C   0  0  0  0  0  0  0  0  0  0  0  0
  -15.4441    2.1398   -0.0490 C   0  0  0  0  0  0  0  0  0  0  0  0
  -15.2282    3.3699   -0.5717 N   0  0  0  0  0  0  0  0  0  0  0  0
  -14.0712    3.2724   -1.2749 C   0  0  0  0  0  0  0  0  0  0  0  0
  -17.5005    2.4986    1.1460 N   0  0  0  0  0  0  0  0  0  0  0  0
  -10.3081   -4.3444    0.1954 O   0  0  0  0  0  1  0  0  0  0  0  0
   -6.6577   -3.7635    2.1976 O   0  0  0  0  0  1  0  0  0  0  0  0
  1  2  1  0
  2  3  1  0
  3  4  1  0
  4  5  1  0
  5  6  1  0
  6  7  1  0
  7  8  1  0
  8  9  1  0
  9 10  1  0
 10 11  2  0
 10 12  1  0
 12 13  1  0
 13 14  2  0
 13 15  1  0
 15 16  1  0
 16 17  1  0
 17 18  1  0
 18 19  1  0
 19 20  2  0
 19 21  1  0
 21 22  1  0
 22 23  1  0
 23 24  1  0
 24 25  2  0
 24 26  1  0
 26 27  1  1
 26 28  1  0
 28 29  1  0
 28 30  1  0
 28 31  1  0
 31 32  1  0
 32 33  1  0
 33 34  2  0
 33 35  1  0
 35 36  1  0
 36 37  2  0
 36 38  1  0
 38 39  1  0
 40 39  1  1
 40 41  1  0
 41 42  1  6
 42 43  1  0
 43 44  1  0
 43 45  2  0
 43 46  1  0
 41 47  1  0
 47 48  1  6
 47 49  1  0
 49 50  1  0
 49 51  1  1
 51 52  1  0
 52 53  2  0
 53 54  1  0
 54 55  2  0
 55 56  1  0
 56 57  2  0
 57 58  1  0
 58 59  2  0
 56 60  1  0
 36 61  1  0
 33 62  1  0
 50 40  1  0
 59 51  1  0
 57 52  1  0
M  CHG  4  44  -1  46  -1  61  -1  62  -1
M  END

