
     RDKit          3D

 56 58  0  0  0  0  0  0  0  0999 V2000
   14.3021    1.9889    2.4780 C   0  0  0  0  0  0  0  0  0  0  0  0
   14.0281    1.1877    1.2247 C   0  0  0  0  0  0  0  0  0  0  0  0
   12.6236    0.6174    1.2862 C   0  0  0  0  0  0  0  0  0  0  0  0
   12.3892   -0.1663    0.0339 C   0  0  0  0  0  0  0  0  0  0  0  0
   11.0619   -0.8454   -0.1789 C   0  0  0  0  0  0  0  0  0  0  0  0
   11.0571   -1.5592   -1.4765 C   0  0  0  0  0  0  0  0  0  0  0  0
    9.7665   -2.5780   -2.1055 S   0  0  0  0  0  0  0  0  0  0  0  0
    8.3218   -2.7429   -1.0807 C   0  0  0  0  0  0  0  0  0  0  0  0
    7.4809   -1.5039   -0.9439 C   0  0  0  0  0  0  0  0  0  0  0  0
    6.3298   -1.7935   -0.0909 N   0  0  0  0  0  0  0  0  0  0  0  0
    5.3709   -0.7736    0.1948 C   0  0  0  0  0  0  0  0  0  0  0  0
    5.4910    0.3844   -0.2721 O   0  0  0  0  0  0  0  0  0  0  0  0
    4.2130   -1.1313    1.0720 C   0  0  0  0  0  0  0  0  0  0  0  0
    3.3577    0.0984    1.2186 C   0  0  0  0  0  0  0  0  0  0  0  0
    2.9019    0.5289   -0.0635 N   0  0  0  0  0  0  0  0  0  0  0  0
    2.0988   -0.2928   -0.8757 C   0  0  0  0  0  0  0  0  0  0  0  0
    1.7465   -1.4288   -0.5125 O   0  0  0  0  0  0  0  0  0  0  0  0
    1.6477    0.2041   -2.2220 C   0  0  2  0  0  0  0  0  0  0  0  0
    2.1295    1.4903   -2.4244 O   0  0  0  0  0  0  0  0  0  0  0  0
    0.1531    0.1178   -2.3001 C   0  0  0  0  0  0  0  0  0  0  0  0
   -0.3555    0.6108   -3.6435 C   0  0  0  0  0  0  0  0  0  0  0  0
   -0.2575   -1.3285   -2.1745 C   0  0  0  0  0  0  0  0  0  0  0  0
   -0.4691    0.9733   -1.2289 C   0  0  0  0  0  0  0  0  0  0  0  0
   -1.8598    0.8951   -1.2982 O   0  0  0  0  0  0  0  0  0  0  0  0
   -2.6386    1.8171   -0.1469 P   0  0  0  0  0  5  0  0  0  0  0  0
   -4.1150    1.8827   -0.5425 O   0  0  0  0  0  0  0  0  0  0  0  0
   -2.5144    1.2361    1.4114 O   0  0  0  0  0  0  0  0  0  0  0  0
   -3.3397   -0.2083    1.5761 P   0  0  0  0  0  5  0  0  0  0  0  0
   -2.6923   -1.2217    0.6426 O   0  0  0  0  0  0  0  0  0  0  0  0
   -5.0003   -0.0543    1.1860 O   0  0  0  0  0  0  0  0  0  0  0  0
   -5.5939   -1.2313    1.6373 C   0  0  0  0  0  0  0  0  0  0  0  0
   -7.0732   -1.2918    1.3819 C   0  0  2  0  0  0  0  0  0  0  0  0
   -7.3623   -1.2149   -0.0988 C   0  0  1  0  0  0  0  0  0  0  0  0
   -8.0555   -2.3256   -0.5600 O   0  0  0  0  0  0  0  0  0  0  0  0
   -7.3620   -3.0781   -1.8638 P   0  0  0  0  0  5  0  0  0  0  0  0
   -5.7393   -2.6889   -2.0862 O   0  0  0  0  0  1  0  0  0  0  0  0
   -7.4766   -4.6038   -1.7893 O   0  0  0  0  0  0  0  0  0  0  0  0
   -8.1933   -2.6103   -3.2650 O   0  0  0  0  0  1  0  0  0  0  0  0
   -8.3363   -0.0519   -0.1586 C   0  0  1  0  0  0  0  0  0  0  0  0
   -9.2904   -0.2077   -1.1487 O   0  0  0  0  0  0  0  0  0  0  0  0
   -8.9265   -0.1425    1.2405 C   0  0  1  0  0  0  0  0  0  0  0  0
   -7.7573   -0.2739    1.9961 O   0  0  0  0  0  0  0  0  0  0  0  0
   -9.7106    0.9838    1.6096 N   0  0  0  0  0  0  0  0  0  0  0  0
  -11.0089    1.1338    1.2462 C   0  0  0  0  0  0  0  0  0  0  0  0
  -11.8660    0.3802    0.5218 N   0  0  0  0  0  0  0  0  0  0  0  0
  -13.1298    0.7470    0.2938 C   0  0  0  0  0  0  0  0  0  0  0  0
  -13.5835    1.9001    0.7926 N   0  0  0  0  0  0  0  0  0  0  0  0
  -12.8044    2.7193    1.5274 C   0  0  0  0  0  0  0  0  0  0  0  0
  -11.5008    2.3225    1.7520 C   0  0  0  0  0  0  0  0  0  0  0  0
  -10.4725    2.8773    2.4227 N   0  0  0  0  0  0  0  0  0  0  0  0
   -9.4170    2.0763    2.3320 C   0  0  0  0  0  0  0  0  0  0  0  0
  -13.3048    3.9267    2.0411 N   0  0  0  0  0  0  0  0  0  0  0  0
   -3.1673   -0.8244    3.1478 O   0  0  0  0  0  1  0  0  0  0  0  0
   -2.0326    3.4145   -0.2020 O   0  0  0  0  0  1  0  0  0  0  0  0
   12.0675   -1.4192   -2.1792 O   0  0  0  0  0  0  0  0  0  0  0  0
   13.2488   -0.2651   -0.8137 O   0  0  0  0  0  0  0  0  0  0  0  0
  1  2  1  0
  2  3  1  0
  3  4  1  0
  4  5  1  0
  5  6  1  0
  6  7  1  0
  7  8  1  0
  8  9  1  0
  9 10  1  0
 10 11  1  0
 11 12  2  0
 11 13  1  0
 13 14  1  0
 14 15  1  0
 15 16  1  0
 16 17  2  0
 16 18  1  0
 18 19  1  1
 18 20  1  0
 20 21  1  0
 20 22  1  0
 20 23  1  0
 23 24  1  0
 24 25  1  0
 25 26  2  0
 25 27  1  0
 27 28  1  0
 28 29  2  0
 28 30  1  0
 30 31  1  0
 32 31  1  6
 32 33  1  0
 33 34  1  1
 34 35  1  0
 35 36  1  0
 35 37  2  0
 35 38  1  0
 33 39  1  0
 39 40  1  6
 39 41  1  0
 41 42  1  0
 41 43  1  1
 43 44  1  0
 44 45  2  0
 45 46  1  0
 46 47  2  0
 47 48  1  0
 48 49  2  0
 49 50  1  0
 50 51  2  0
 48 52  1  0
 28 53  1  0
 25 54  1  0
  6 55  2  0
  4 56  2  0
 42 32  1  0
 51 43  1  0
 49 44  1  0
M  CHG  4  36  -1  38  -1  53  -1  54  -1
M  END

