
     RDKit          3D

 58 60  0  0  0  0  0  0  0  0999 V2000
  -13.2369   -0.4025    0.7434 C   0  0  0  0  0  0  0  0  0  0  0  0
  -13.4345    1.0156    0.3517 C   0  0  0  0  0  0  0  0  0  0  0  0
  -12.2249    1.8102    0.0255 C   0  0  0  0  0  0  0  0  0  0  0  0
  -11.2055    1.9920    1.0768 C   0  0  0  0  0  0  0  0  0  0  0  0
  -10.5052    0.7917    1.5956 C   0  0  0  0  0  0  0  0  0  0  0  0
   -9.6966    0.0727    0.5768 C   0  0  0  0  0  0  0  0  0  0  0  0
   -9.6119    0.5425   -0.5374 O   0  0  0  0  0  0  0  0  0  0  0  0
   -8.9888   -1.1984    0.8684 C   0  0  0  0  0  0  0  0  0  0  0  0
   -8.2270   -1.6496   -0.3602 C   0  0  0  0  0  0  0  0  0  0  0  0
   -7.0805   -1.3018   -0.4327 O   0  0  0  0  0  0  0  0  0  0  0  0
   -9.0672   -2.6155   -1.5389 S   0  0  0  0  0  0  0  0  0  0  0  0
   -8.1725   -3.1375   -2.9681 C   0  0  0  0  0  0  0  0  0  0  0  0
   -7.7583   -2.0601   -3.9218 C   0  0  0  0  0  0  0  0  0  0  0  0
   -6.7744   -1.1810   -3.3739 N   0  0  0  0  0  0  0  0  0  0  0  0
   -5.4642   -1.6619   -3.0212 C   0  0  0  0  0  0  0  0  0  0  0  0
   -5.1837   -2.8824   -3.1941 O   0  0  0  0  0  0  0  0  0  0  0  0
   -4.4907   -0.6972   -2.4678 C   0  0  0  0  0  0  0  0  0  0  0  0
   -3.1996   -1.4697   -2.2275 C   0  0  0  0  0  0  0  0  0  0  0  0
   -2.2216   -0.5546   -1.6929 N   0  0  0  0  0  0  0  0  0  0  0  0
   -0.9288   -1.0578   -1.3939 C   0  0  0  0  0  0  0  0  0  0  0  0
   -0.6474   -2.2829   -1.6007 O   0  0  0  0  0  0  0  0  0  0  0  0
    0.1319   -0.2120   -0.8438 C   0  0  2  0  0  0  0  0  0  0  0  0
    1.3238   -0.9817   -0.7987 O   0  0  0  0  0  0  0  0  0  0  0  0
   -0.1516    0.3446    0.5255 C   0  0  0  0  0  0  0  0  0  0  0  0
   -0.3594   -0.8292    1.4532 C   0  0  0  0  0  0  0  0  0  0  0  0
   -1.3031    1.2723    0.6236 C   0  0  0  0  0  0  0  0  0  0  0  0
    1.1273    1.1049    0.9236 C   0  0  0  0  0  0  0  0  0  0  0  0
    2.1866    0.1887    0.9308 O   0  0  0  0  0  0  0  0  0  0  0  0
    3.6365    0.9159    1.3480 P   0  0  0  0  0  5  0  0  0  0  0  0
    4.7091    0.3817    0.3998 O   0  0  0  0  0  0  0  0  0  0  0  0
    4.0823    0.6007    2.9388 O   0  0  0  0  0  0  0  0  0  0  0  0
    5.3500   -0.4963    3.0350 P   0  0  0  0  0  5  0  0  0  0  0  0
    5.0932   -1.4253    4.2226 O   0  0  0  0  0  0  0  0  0  0  0  0
    6.8235    0.2508    3.3335 O   0  0  0  0  0  0  0  0  0  0  0  0
    7.8771   -0.4722    2.7446 C   0  0  0  0  0  0  0  0  0  0  0  0
    9.2021    0.2062    3.0264 C   0  0  2  0  0  0  0  0  0  0  0  0
    9.2655    1.5916    2.4712 C   0  0  1  0  0  0  0  0  0  0  0  0
    9.9167    2.4998    3.2700 O   0  0  0  0  0  0  0  0  0  0  0  0
    9.0127    3.8242    3.7199 P   0  0  0  0  0  5  0  0  0  0  0  0
    9.9009    5.2280    3.3032 O   0  0  0  0  0  1  0  0  0  0  0  0
    8.7501    3.9046    5.1900 O   0  0  0  0  0  0  0  0  0  0  0  0
    7.5766    3.9142    2.8039 O   0  0  0  0  0  1  0  0  0  0  0  0
    9.9435    1.3830    1.1395 C   0  0  1  0  0  0  0  0  0  0  0  0
   10.7999    2.4412    0.8867 O   0  0  0  0  0  0  0  0  0  0  0  0
   10.6755    0.0842    1.3317 C   0  0  1  0  0  0  0  0  0  0  0  0
   10.1871   -0.5484    2.4277 O   0  0  0  0  0  0  0  0  0  0  0  0
   10.6546   -0.7501    0.1252 N   0  0  0  0  0  0  0  0  0  0  0  0
   10.7487   -0.3138   -1.1431 C   0  0  0  0  0  0  0  0  0  0  0  0
   10.8795    0.9351   -1.6335 N   0  0  0  0  0  0  0  0  0  0  0  0
   10.9515    1.0839   -2.9661 C   0  0  0  0  0  0  0  0  0  0  0  0
   10.9020    0.0622   -3.8484 N   0  0  0  0  0  0  0  0  0  0  0  0
   10.7717   -1.2025   -3.3984 C   0  0  0  0  0  0  0  0  0  0  0  0
   10.6959   -1.3741   -2.0327 C   0  0  0  0  0  0  0  0  0  0  0  0
   10.5644   -2.4747   -1.2363 N   0  0  0  0  0  0  0  0  0  0  0  0
   10.5411   -2.0861    0.0503 C   0  0  0  0  0  0  0  0  0  0  0  0
   10.7167   -2.3116   -4.2842 N   0  0  0  0  0  0  0  0  0  0  0  0
    5.4311   -1.4713    1.6516 O   0  0  0  0  0  1  0  0  0  0  0  0
    3.5253    2.5898    1.0411 O   0  0  0  0  0  1  0  0  0  0  0  0
  1  2  1  0
  2  3  1  0
  3  4  1  0
  4  5  1  0
  5  6  1  0
  6  7  2  0
  6  8  1  0
  8  9  1  0
  9 10  2  0
  9 11  1  0
 11 12  1  0
 12 13  1  0
 13 14  1  0
 14 15  1  0
 15 16  2  0
 15 17  1  0
 17 18  1  0
 18 19  1  0
 19 20  1  0
 20 21  2  0
 20 22  1  0
 22 23  1  1
 22 24  1  0
 24 25  1  0
 24 26  1  0
 24 27  1  0
 27 28  1  0
 28 29  1  0
 29 30  2  0
 29 31  1  0
 31 32  1  0
 32 33  2  0
 32 34  1  0
 34 35  1  0
 36 35  1  6
 36 37  1  0
 37 38  1  1
 38 39  1  0
 39 40  1  0
 39 41  2  0
 39 42  1  0
 37 43  1  0
 43 44  1  1
 43 45  1  0
 45 46  1  0
 45 47  1  6
 47 48  1  0
 48 49  2  0
 49 50  1  0
 50 51  2  0
 51 52  1  0
 52 53  2  0
 53 54  1  0
 54 55  2  0
 52 56  1  0
 32 57  1  0
 29 58  1  0
 46 36  1  0
 55 47  1  0
 53 48  1  0
M  CHG  4  40  -1  42  -1  57  -1  58  -1
M  END

