
     RDKit          3D

 50 50  0  0  0  0  0  0  0  0999 V2000
  -13.3076   -0.1708    2.8743 C   0  0  0  0  0  0  0  0  0  0  0  0
  -11.9908   -0.7835    2.6432 C   0  0  0  0  0  0  0  0  0  0  0  0
  -11.8840   -1.9613    1.7204 C   0  0  0  0  0  0  0  0  0  0  0  0
  -10.9229   -0.2904    3.2562 C   0  0  0  0  0  0  0  0  0  0  0  0
   -9.5751   -0.8537    3.0712 C   0  0  0  0  0  0  0  0  0  0  0  0
   -8.5567    0.1145    2.5301 C   0  0  0  0  0  0  0  0  0  0  0  0
   -8.8494    0.6753    1.2149 C   0  0  0  0  0  0  0  0  0  0  0  0
  -10.1211    1.4774    1.0504 C   0  0  0  0  0  0  0  0  0  0  0  0
   -8.0723    0.5403    0.1355 C   0  0  0  0  0  0  0  0  0  0  0  0
   -6.8230   -0.1925    0.1453 C   0  0  0  0  0  0  0  0  0  0  0  0
   -6.7586   -1.4395   -0.6966 C   0  0  0  0  0  0  0  0  0  0  0  0
   -6.9924   -1.2797   -2.1262 C   0  0  0  0  0  0  0  0  0  0  0  0
   -8.3377   -0.7868   -2.5978 C   0  0  0  0  0  0  0  0  0  0  0  0
   -6.1350   -1.5567   -3.0888 C   0  0  0  0  0  0  0  0  0  0  0  0
   -4.8026   -2.0696   -2.8556 C   0  0  0  0  0  0  0  0  0  0  0  0
   -3.6944   -1.2983   -3.5605 C   0  0  0  0  0  0  0  0  0  0  0  0
   -3.6515    0.0867   -3.1225 C   0  0  0  0  0  0  0  0  0  0  0  0
   -4.8355    0.9922   -3.3839 C   0  0  0  0  0  0  0  0  0  0  0  0
   -2.5818    0.6127   -2.5220 C   0  0  0  0  0  0  0  0  0  0  0  0
   -1.3729   -0.1227   -2.2456 C   0  0  0  0  0  0  0  0  0  0  0  0
   -1.0094   -0.2215   -0.7983 C   0  0  0  0  0  0  0  0  0  0  0  0
   -0.7302    1.0670   -0.1793 C   0  0  0  0  0  0  0  0  0  0  0  0
   -1.7854    2.1408    0.0085 C   0  0  0  0  0  0  0  0  0  0  0  0
    0.4889    1.3296    0.2945 C   0  0  0  0  0  0  0  0  0  0  0  0
    1.6066    0.4108    0.2483 C   0  0  0  0  0  0  0  0  0  0  0  0
    2.1571    0.2211    1.6772 C   0  0  0  0  0  0  0  0  0  0  0  0
    3.2728   -0.7232    1.7028 C   0  0  0  0  0  0  0  0  0  0  0  0
    2.9640   -2.1367    1.2253 C   0  0  0  0  0  0  0  0  0  0  0  0
    4.4634   -0.4215    2.1038 C   0  0  0  0  0  0  0  0  0  0  0  0
    4.8857    0.8844    2.5860 C   0  0  0  0  0  0  0  0  0  0  0  0
    6.0736    1.4404    1.8035 C   0  0  0  0  0  0  0  0  0  0  0  0
    5.7405    1.6224    0.4018 C   0  0  0  0  0  0  0  0  0  0  0  0
    4.6533    2.6167    0.0531 C   0  0  0  0  0  0  0  0  0  0  0  0
    6.3548    0.9808   -0.5605 C   0  0  0  0  0  0  0  0  0  0  0  0
    7.4165    0.0329   -0.3452 C   0  0  0  0  0  0  0  0  0  0  0  0
    8.7458    0.4083   -1.0263 C   0  0  0  0  0  0  0  0  0  0  0  0
    9.3116    1.6671   -0.5478 C   0  0  0  0  0  0  0  0  0  0  0  0
    8.4901    2.9296   -0.7805 C   0  0  0  0  0  0  0  0  0  0  0  0
   10.4623    1.8622    0.0417 C   0  0  0  0  0  0  0  0  0  0  0  0
   11.5216    0.9538    0.4034 C   0  0  0  0  0  0  0  0  0  0  0  0
   11.5714   -0.4206   -0.0300 C   0  0  0  0  0  0  0  0  0  0  0  0
   11.2271   -1.4361    0.8586 C   0  0  0  0  0  0  0  0  0  0  0  0
   11.3082   -2.7505    0.4760 C   0  0  0  0  0  0  0  0  0  0  0  0
   11.7314   -3.1115   -0.7958 C   0  0  0  0  0  0  0  0  0  0  0  0
   12.0610   -2.1022   -1.6443 C   0  0  0  0  0  0  0  0  0  0  0  0
   11.9953   -0.7861   -1.3069 C   0  0  0  0  0  0  0  0  0  0  0  0
   12.3402    0.2034   -2.2057 O   0  0  0  0  0  0  0  0  0  0  0  0
   10.9443   -3.8004    1.4282 C   0  0  0  0  0  0  0  0  0  0  0  0
   10.5506   -3.4925    2.5815 O   0  0  0  0  0  0  0  0  0  0  0  0
   11.0335   -5.1423    1.0597 O   0  0  0  0  0  1  0  0  0  0  0  0
  1  2  1  0
  2  3  1  0
  2  4  2  3
  4  5  1  0
  5  6  1  0
  6  7  1  0
  7  8  1  0
  7  9  2  0
  9 10  1  0
 10 11  1  0
 11 12  1  0
 12 13  1  0
 12 14  2  0
 14 15  1  0
 15 16  1  0
 16 17  1  0
 17 18  1  0
 17 19  2  0
 19 20  1  0
 20 21  1  0
 21 22  1  0
 22 23  1  0
 22 24  2  0
 24 25  1  0
 25 26  1  0
 26 27  1  0
 27 28  1  0
 27 29  2  0
 29 30  1  0
 30 31  1  0
 31 32  1  0
 32 33  1  0
 32 34  2  0
 34 35  1  0
 35 36  1  0
 36 37  1  0
 37 38  1  0
 37 39  2  0
 39 40  1  0
 40 41  1  0
 41 42  2  0
 42 43  1  0
 43 44  2  0
 44 45  1  0
 45 46  2  0
 46 47  1  0
 43 48  1  0
 48 49  2  0
 48 50  1  0
 46 41  1  0
M  CHG  1  50  -1
M  END

