
     RDKit          3D

 60 62  0  0  0  0  0  0  0  0999 V2000
   -0.6412   -1.8461   -3.0918 C   0  0  0  0  0  0  0  0  0  0  0  0
   -0.3653   -0.4615   -2.5776 C   0  0  0  0  0  0  0  0  0  0  0  0
   -1.0366    0.5320   -3.5356 C   0  0  0  0  0  0  0  0  0  0  0  0
    1.0816   -0.1420   -2.4587 C   0  0  1  0  0  0  0  0  0  0  0  0
    1.2450    1.1872   -2.0048 O   0  0  0  0  0  0  0  0  0  0  0  0
    1.8026   -1.0319   -1.4531 C   0  0  0  0  0  0  0  0  0  0  0  0
    2.1663   -0.4544   -0.3932 O   0  0  0  0  0  0  0  0  0  0  0  0
    2.0362   -2.3643   -1.6933 N   0  0  0  0  0  0  0  0  0  0  0  0
    2.6562   -3.4430   -1.0087 C   0  0  0  0  0  0  0  0  0  0  0  0
    4.0771   -3.4716   -0.7248 C   0  0  0  0  0  0  0  0  0  0  0  0
    4.6968   -2.5497    0.2065 C   0  0  0  0  0  0  0  0  0  0  0  0
    4.0301   -1.8765    1.0167 O   0  0  0  0  0  0  0  0  0  0  0  0
    6.1276   -2.3829    0.2224 N   0  0  0  0  0  0  0  0  0  0  0  0
    6.7781   -1.4791    1.1104 C   0  0  0  0  0  0  0  0  0  0  0  0
    6.3485   -0.0580    0.8294 C   0  0  0  0  0  0  0  0  0  0  0  0
    6.6702    0.3739   -0.8602 S   0  0  0  0  0  0  0  0  0  0  0  0
    8.3596    0.5519   -1.2724 C   0  0  0  0  0  0  0  0  0  0  0  0
    8.6836    0.7746   -2.4734 O   0  0  0  0  0  0  0  0  0  0  0  0
    9.4834    0.4674   -0.3295 C   0  0  0  0  0  0  0  0  0  0  0  0
   10.7704    0.7493   -1.0586 C   0  0  0  0  0  0  0  0  0  0  0  0
   12.0281    0.7293   -0.2469 C   0  0  0  0  0  0  0  0  0  0  0  0
   11.7938    0.8845    1.1954 C   0  0  0  0  0  0  0  0  0  0  0  0
   12.2961    1.8792    1.8963 C   0  0  0  0  0  0  0  0  0  0  0  0
   13.1291    2.9195    1.3092 C   0  0  0  0  0  0  0  0  0  0  0  0
   14.4940    2.9453    1.9341 C   0  0  0  0  0  0  0  0  0  0  0  0
   15.3906    3.8865    1.4400 O   0  0  0  0  0  1  0  0  0  0  0  0
   14.7644    2.1362    2.8543 O   0  0  0  0  0  0  0  0  0  0  0  0
   10.8027    0.9818   -2.2479 O   0  0  0  0  0  0  0  0  0  0  0  0
   -1.0797   -0.3646   -1.2236 C   0  0  0  0  0  0  0  0  0  0  0  0
   -0.9305    0.8416   -0.6023 O   0  0  0  0  0  0  0  0  0  0  0  0
   -1.7132    0.9195    0.8880 P   0  0  0  0  0  5  0  0  0  0  0  0
   -3.0463    1.5894    0.6743 O   0  0  0  0  0  0  0  0  0  0  0  0
   -1.7648   -0.5047    1.7118 O   0  0  0  0  0  0  0  0  0  0  0  0
   -3.1969   -1.3338    1.7531 P   0  0  0  0  0  5  0  0  0  0  0  0
   -3.0086   -2.5017    2.7345 O   0  0  0  0  0  0  0  0  0  0  0  0
   -4.5430   -0.4550    2.0237 O   0  0  0  0  0  0  0  0  0  0  0  0
   -5.7578   -1.0173    1.9599 C   0  0  0  0  0  0  0  0  0  0  0  0
   -6.9466   -0.1790    2.2214 C   0  0  2  0  0  0  0  0  0  0  0  0
   -8.2444   -0.8841    1.8900 C   0  0  1  0  0  0  0  0  0  0  0  0
   -8.5984   -1.8958    2.7291 O   0  0  0  0  0  0  0  0  0  0  0  0
   -8.9793   -3.2625    1.7819 P   0  0  0  0  0  5  0  0  0  0  0  0
   -9.5198   -4.5032    2.7721 O   0  0  0  0  0  1  0  0  0  0  0  0
  -10.0913   -2.8499    0.8112 O   0  0  0  0  0  0  0  0  0  0  0  0
   -7.6558   -3.7089    0.8291 O   0  0  0  0  0  1  0  0  0  0  0  0
   -9.2065    0.3090    1.9754 C   0  0  1  0  0  0  0  0  0  0  0  0
   -9.4689    0.5484    3.3033 O   0  0  0  0  0  0  0  0  0  0  0  0
   -8.3248    1.4079    1.4235 C   0  0  1  0  0  0  0  0  0  0  0  0
   -7.0359    0.8928    1.3198 O   0  0  0  0  0  0  0  0  0  0  0  0
   -8.8156    1.8072    0.1181 N   0  0  0  0  0  0  0  0  0  0  0  0
   -9.9964    2.3231   -0.1905 C   0  0  0  0  0  0  0  0  0  0  0  0
  -11.0921    2.6438    0.5200 N   0  0  0  0  0  0  0  0  0  0  0  0
  -12.2011    3.1678   -0.0212 C   0  0  0  0  0  0  0  0  0  0  0  0
  -12.2345    3.3906   -1.3523 N   0  0  0  0  0  0  0  0  0  0  0  0
  -11.1942    3.1049   -2.1465 C   0  0  0  0  0  0  0  0  0  0  0  0
  -10.0716    2.5692   -1.5651 C   0  0  0  0  0  0  0  0  0  0  0  0
   -8.8835    2.1759   -2.0520 N   0  0  0  0  0  0  0  0  0  0  0  0
   -8.1131    1.7127   -1.0458 C   0  0  0  0  0  0  0  0  0  0  0  0
  -11.3079    3.3706   -3.5318 N   0  0  0  0  0  0  0  0  0  0  0  0
   -3.3672   -2.1289    0.2542 O   0  0  0  0  0  1  0  0  0  0  0  0
   -0.7956    2.0011    1.8578 O   0  0  0  0  0  1  0  0  0  0  0  0
  1  2  1  0
  2  3  1  0
  2  4  1  0
  4  5  1  1
  4  6  1  0
  6  7  2  0
  6  8  1  0
  8  9  1  0
  9 10  1  0
 10 11  1  0
 11 12  2  0
 11 13  1  0
 13 14  1  0
 14 15  1  0
 15 16  1  0
 16 17  1  0
 17 18  2  0
 17 19  1  0
 19 20  1  0
 20 21  1  0
 21 22  1  0
 22 23  2  0
 23 24  1  0
 24 25  1  0
 25 26  1  0
 25 27  2  0
 20 28  2  0
  2 29  1  0
 29 30  1  0
 30 31  1  0
 31 32  2  0
 31 33  1  0
 33 34  1  0
 34 35  2  0
 34 36  1  0
 36 37  1  0
 38 37  1  6
 38 39  1  0
 39 40  1  1
 40 41  1  0
 41 42  1  0
 41 43  2  0
 41 44  1  0
 39 45  1  0
 45 46  1  1
 45 47  1  0
 47 48  1  0
 47 49  1  6
 49 50  1  0
 50 51  2  0
 51 52  1  0
 52 53  2  0
 53 54  1  0
 54 55  2  0
 55 56  1  0
 56 57  2  0
 54 58  1  0
 34 59  1  0
 31 60  1  0
 48 38  1  0
 57 49  1  0
 55 50  1  0
M  CHG  5  26  -1  42  -1  44  -1  59  -1  60  -1
M  END

