
     RDKit          3D

 11 10  0  0  0  0  0  0  0  0999 V2000
    0.0865   -0.3080    0.6077 C   0  0  0  0  0  0  0  0  0  0  0  0
    0.8236    0.5486   -0.2072 O   0  0  0  0  0  0  0  0  0  0  0  0
    2.4401    0.0242   -0.1325 P   0  0  0  0  0  5  0  0  0  0  0  0
    3.2527    0.5723   -1.2674 O   0  0  0  0  0  0  0  0  0  0  0  0
    3.0398    0.5523    1.3788 O   0  0  0  0  0  1  0  0  0  0  0  0
    2.4392   -1.6566   -0.0929 O   0  0  0  0  0  1  0  0  0  0  0  0
   -1.3846    0.0638    0.6214 C   0  0  1  0  0  0  0  0  0  0  0  0
   -1.5769    1.3427    1.0909 O   0  0  0  0  0  0  0  0  0  0  0  0
   -2.0531   -0.2001   -0.6618 C   0  0  0  0  0  0  0  0  0  0  0  0
   -2.4222    0.7689   -1.3692 O   0  0  0  0  0  0  0  0  0  0  0  0
   -2.3009   -1.4766   -1.1384 O   0  0  0  0  0  1  0  0  0  0  0  0
  1  2  1  0
  2  3  1  0
  3  4  2  0
  3  5  1  0
  3  6  1  0
  1  7  1  0
  7  8  1  6
  7  9  1  0
  9 10  2  0
  9 11  1  0
M  CHG  3   5  -1   6  -1  11  -1
M  END

