
     RDKit          3D

  6  5  0  0  0  0  0  0  0  0999 V2000
    0.2093   -0.4071    0.7085 C   0  0  0  0  0  0  0  0  0  0  0  0
   -1.2686   -0.5202    0.4529 C   0  0  0  0  0  0  0  0  0  0  0  0
   -1.8342    0.7517    0.0057 N   0  0  0  0  0  4  0  0  0  0  0  0
    1.0177   -0.0505   -0.4887 C   0  0  0  0  0  0  0  0  0  0  0  0
    2.4512    0.0386   -0.0467 C   0  0  0  0  0  0  0  0  0  0  0  0
    3.0368    1.0694    0.1677 O   0  0  0  0  0  0  0  0  0  0  0  0
  1  2  1  0
  2  3  1  0
  1  4  1  0
  4  5  1  0
  5  6  2  0
M  CHG  1   3   1
M  END

