
     RDKit          3D

  7  6  0  0  0  0  0  0  0  0999 V2000
   -0.0843   -0.7172    0.4479 C   0  0  0  0  0  0  0  0  0  0  0  0
   -0.6921    0.4224   -0.2940 C   0  0  0  0  0  0  0  0  0  0  0  0
   -2.0978    0.6126    0.0291 N   0  0  0  0  0  4  0  0  0  0  0  0
    1.3574   -0.8704    0.0745 C   0  0  0  0  0  0  0  0  0  0  0  0
    2.1194    0.3218    0.4469 C   0  0  0  0  0  0  0  0  0  0  0  0
    3.4722    0.3261    0.0774 O   0  0  0  0  0  1  0  0  0  0  0  0
    1.7228    1.3296    1.0477 O   0  0  0  0  0  0  0  0  0  0  0  0
  1  2  1  0
  2  3  1  0
  1  4  1  0
  4  5  1  0
  5  6  1  0
  5  7  2  0
M  CHG  2   3   1   6  -1
M  END

