
     RDKit          3D

 10 10  0  0  0  0  0  0  0  0999 V2000
    2.8235   -0.0888    0.3553 C   0  0  0  0  0  0  0  0  0  0  0  0
    3.3635   -1.0960    0.8734 O   0  0  0  0  0  0  0  0  0  0  0  0
    3.6502    0.9527   -0.0244 O   0  0  0  0  0  1  0  0  0  0  0  0
    1.3780   -0.0525    0.1760 C   0  0  0  0  0  0  0  0  0  0  0  0
    0.5656   -1.0988    0.5596 C   0  0  0  0  0  0  0  0  0  0  0  0
   -0.8028   -1.0608    0.3882 C   0  0  0  0  0  0  0  0  0  0  0  0
   -1.4300    0.0331   -0.1791 C   0  0  0  0  0  0  0  0  0  0  0  0
   -2.8370    0.0963   -0.3662 N   0  0  0  0  0  0  0  0  0  0  0  0
   -0.6194    1.0827   -0.5643 C   0  0  0  0  0  0  0  0  0  0  0  0
    0.7497    1.0435   -0.3924 C   0  0  0  0  0  0  0  0  0  0  0  0
  1  2  2  0
  1  3  1  0
  1  4  1  0
  4  5  2  0
  5  6  1  0
  6  7  2  0
  7  8  1  0
  7  9  1  0
  9 10  2  0
 10  4  1  0
M  CHG  1   3  -1
M  END

