
     RDKit          3D

  8  8  0  0  0  0  0  0  0  0999 V2000
    2.4792   -0.0063    0.2377 C   0  0  0  0  0  0  0  0  0  0  0  0
    1.0005    0.0038    0.0573 C   0  0  0  0  0  0  0  0  0  0  0  0
    0.2763   -1.1564   -0.1337 C   0  0  0  0  0  0  0  0  0  0  0  0
   -1.0928   -1.1558   -0.3014 C   0  0  0  0  0  0  0  0  0  0  0  0
   -1.8115    0.0197   -0.2860 C   0  0  0  0  0  0  0  0  0  0  0  0
   -3.2016    0.0312   -0.4554 O   0  0  0  0  0  0  0  0  0  0  0  0
   -1.0966    1.1822   -0.0960 C   0  0  0  0  0  0  0  0  0  0  0  0
    0.2722    1.1775    0.0714 C   0  0  0  0  0  0  0  0  0  0  0  0
  1  2  1  0
  2  3  2  0
  3  4  1  0
  4  5  2  0
  5  6  1  0
  5  7  1  0
  7  8  2  0
  8  2  1  0
M  END

