
     RDKit          3D

  9  9  0  0  0  0  0  0  0  0999 V2000
   -1.9370   -1.0804    0.8690 C   0  0  0  0  0  0  0  0  0  0  0  0
   -1.3411    0.1869    0.2835 C   0  0  0  0  0  0  0  0  0  0  0  0
   -1.9850    1.3139    0.2977 N   0  0  0  0  0  0  0  0  0  0  0  0
   -1.4295    2.4002   -0.2182 C   0  0  0  0  0  0  0  0  0  0  0  0
    0.0819    1.8059   -0.7532 S   0  0  0  0  0  0  0  0  0  0  0  0
   -0.0926    0.1725   -0.2750 C   0  0  0  0  0  0  0  0  0  0  0  0
    0.8429   -0.9784   -0.4289 C   0  0  0  0  0  0  0  0  0  0  0  0
    2.2395   -0.4223   -0.5914 C   0  0  0  0  0  0  0  0  0  0  0  0
    2.6280    0.3140    0.5363 O   0  0  0  0  0  0  0  0  0  0  0  0
  1  2  1  0
  2  3  1  0
  3  4  2  0
  4  5  1  0
  5  6  1  0
  6  7  1  0
  7  8  1  0
  8  9  1  0
  6  2  2  0
M  END

