
     RDKit          3D

  9  8  0  0  0  0  0  0  0  0999 V2000
   -1.5166    0.2454   -1.7706 C   0  0  0  0  0  0  0  0  0  0  0  0
   -0.8222    0.3142   -0.4272 C   0  0  0  0  0  0  0  0  0  0  0  0
   -1.3943   -0.7325    0.4728 C   0  0  0  0  0  0  0  0  0  0  0  0
    0.6853    0.1630   -0.6020 C   0  0  0  0  0  0  0  0  0  0  0  0
    1.3754    0.2289    0.7071 C   0  0  0  0  0  0  0  0  0  0  0  0
    2.8174    0.1082    0.7883 C   0  0  0  0  0  0  0  0  0  0  0  0
    3.5165    0.1603    1.9646 O   0  0  0  0  0  1  0  0  0  0  0  0
    3.4495   -0.0525   -0.2834 O   0  0  0  0  0  0  0  0  0  0  0  0
    0.7498    0.3897    1.7861 O   0  0  0  0  0  0  0  0  0  0  0  0
  1  2  1  0
  2  3  1  0
  2  4  1  0
  4  5  1  0
  5  6  1  0
  6  7  1  0
  6  8  2  0
  5  9  2  0
M  CHG  1   7  -1
M  END

