
     RDKit          3D

 13 13  0  0  0  0  0  0  0  0999 V2000
   -2.3068   -1.9733    0.0151 C   0  0  0  0  0  0  0  0  0  0  0  0
   -2.1071   -0.5213    0.2702 C   0  0  0  0  0  0  0  0  0  0  0  0
   -3.0039    0.3741    0.4753 N   0  0  0  0  0  0  0  0  0  0  0  0
   -2.7372    1.6731    0.6852 C   0  0  0  0  0  0  0  0  0  0  0  0
   -1.0426    1.6623    0.6319 S   0  0  0  0  0  0  0  0  0  0  0  0
   -0.7787    0.0289    0.3246 C   0  0  0  0  0  0  0  0  0  0  0  0
    0.4343   -0.7493    0.1017 C   0  0  0  0  0  0  0  0  0  0  0  0
    1.4640    0.0571   -0.7089 C   0  0  0  0  0  0  0  0  0  0  0  0
    1.6712    1.2424    0.1349 O   0  0  0  0  0  0  0  0  0  0  0  0
    3.2622    1.4752    0.4047 P   0  0  0  0  0  5  0  0  0  0  0  0
    4.2928    0.4591   -0.4440 O   0  0  0  0  0  1  0  0  0  0  0  0
    3.6822    2.8912    0.3950 O   0  0  0  0  0  0  0  0  0  0  0  0
    3.4006    0.9385    2.0850 O   0  0  0  0  0  1  0  0  0  0  0  0
  1  2  1  0
  2  3  1  0
  3  4  2  0
  4  5  1  0
  5  6  1  0
  6  7  1  0
  7  8  1  0
  8  9  1  0
  9 10  1  0
 10 11  1  0
 10 12  2  0
 10 13  1  0
  6  2  2  0
M  CHG  2  11  -1  13  -1
M  END

