
     RDKit          3D

 13 12  0  0  0  0  0  0  0  0999 V2000
    0.5227    0.1753    0.3632 C   0  0  0  0  0  0  0  0  0  0  0  0
    1.8361    0.2966   -0.1430 O   0  0  0  0  0  0  0  0  0  0  0  0
    2.8631    0.6082    1.1521 P   0  0  0  0  0  5  0  0  0  0  0  0
    4.1485   -0.1875    0.9655 O   0  0  0  0  0  0  0  0  0  0  0  0
    3.2901    2.2386    1.2536 O   0  0  0  0  0  1  0  0  0  0  0  0
    2.1642    0.0593    2.5931 O   0  0  0  0  0  1  0  0  0  0  0  0
   -0.3924   -0.1080   -0.8343 C   0  0  2  0  0  0  0  0  0  0  0  0
   -1.7962   -0.3592   -0.3537 C   0  0  2  0  0  0  0  0  0  0  0  0
   -2.5211    0.8643    0.0426 C   0  0  0  0  0  0  0  0  0  0  0  0
   -1.7855    2.0079    0.2937 O   0  0  0  0  0  1  0  0  0  0  0  0
   -3.7700    0.8750    0.1506 O   0  0  0  0  0  0  0  0  0  0  0  0
   -1.8207   -1.3448    0.6427 O   0  0  0  0  0  0  0  0  0  0  0  0
    0.1103   -1.3142   -1.3729 O   0  0  0  0  0  0  0  0  0  0  0  0
  1  2  1  0
  2  3  1  0
  3  4  2  0
  3  5  1  0
  3  6  1  0
  1  7  1  0
  7  8  1  0
  8  9  1  0
  9 10  1  0
  9 11  2  0
  8 12  1  1
  7 13  1  1
M  CHG  3   5  -1   6  -1  10  -1
M  END

