
     RDKit          3D

 25 24  0  0  0  0  0  0  0  0999 V2000
   -2.3329    1.5651    0.6451 C   0  0  0  0  0  0  0  0  0  0  0  0
   -2.2473    0.0456    0.6973 C   0  0  0  0  0  0  0  0  0  0  0  0
   -0.9197   -0.3371    1.2407 C   0  0  0  0  0  0  0  0  0  0  0  0
   -3.2936   -0.4927    1.6717 C   0  0  0  0  0  0  0  0  0  0  0  0
   -4.5676   -0.1311    1.2699 O   0  0  0  0  0  0  0  0  0  0  0  0
   -5.6744   -0.7488    2.3760 P   0  0  0  0  0  5  0  0  0  0  0  0
   -6.8402    0.1685    2.5497 O   0  0  0  0  0  0  0  0  0  0  0  0
   -6.2742   -2.2254    1.7684 O   0  0  0  0  0  1  0  0  0  0  0  0
   -4.9529   -1.0304    3.8686 O   0  0  0  0  0  1  0  0  0  0  0  0
   -2.6017   -0.4937   -0.6453 C   0  0  1  0  0  0  0  0  0  0  0  0
   -3.9370   -0.0734   -0.9219 O   0  0  0  0  0  0  0  0  0  0  0  0
   -1.7840   -0.0313   -1.7691 C   0  0  0  0  0  0  0  0  0  0  0  0
   -2.2878    0.6489   -2.7176 O   0  0  0  0  0  0  0  0  0  0  0  0
   -0.4082   -0.3314   -1.8329 N   0  0  0  0  0  0  0  0  0  0  0  0
    0.3471    0.1518   -2.9864 C   0  0  0  0  0  0  0  0  0  0  0  0
    1.7654   -0.2835   -2.8483 C   0  0  0  0  0  0  0  0  0  0  0  0
    2.3749    0.2891   -1.6213 C   0  0  0  0  0  0  0  0  0  0  0  0
    1.7371    1.0694   -0.8712 O   0  0  0  0  0  0  0  0  0  0  0  0
    3.7173   -0.0289   -1.2472 N   0  0  0  0  0  0  0  0  0  0  0  0
    4.3053    0.5308   -0.0528 C   0  0  1  0  0  0  0  0  0  0  0  0
    4.6685   -0.6296    0.8515 C   0  0  0  0  0  0  0  0  0  0  0  0
    5.4181   -0.0727    2.3918 S   0  0  0  0  0  0  0  0  0  0  0  0
    5.4820    1.3533   -0.3936 C   0  0  0  0  0  0  0  0  0  0  0  0
    6.0170    2.1572    0.4062 O   0  0  0  0  0  0  0  0  0  0  0  0
    6.0295    1.2367   -1.6607 O   0  0  0  0  0  1  0  0  0  0  0  0
  1  2  1  0
  2  3  1  0
  2  4  1  0
  4  5  1  0
  5  6  1  0
  6  7  2  0
  6  8  1  0
  6  9  1  0
  2 10  1  0
 10 11  1  6
 10 12  1  0
 12 13  2  0
 12 14  1  0
 14 15  1  0
 15 16  1  0
 16 17  1  0
 17 18  2  0
 17 19  1  0
 19 20  1  0
 20 21  1  1
 21 22  1  0
 20 23  1  0
 23 24  2  0
 23 25  1  0
M  CHG  3   8  -1   9  -1  25  -1
M  END

