
     RDKit          3D

  8  8  0  0  0  0  0  0  0  0999 V2000
    1.5376   -0.2365    0.0107 C   0  0  0  0  0  0  0  0  0  0  0  0
    1.0755    1.0989    0.2401 N   0  0  0  0  0  0  0  0  0  0  0  0
   -0.3284    1.3224    0.2947 C   0  0  0  0  0  0  0  0  0  0  0  0
   -1.2425    0.1536    0.3741 C   0  0  0  0  0  0  0  0  0  0  0  0
   -0.7303   -0.8891   -0.6205 C   0  0  0  0  0  0  0  0  0  0  0  0
    0.5842   -1.2797   -0.1525 N   0  0  0  0  0  0  0  0  0  0  0  0
   -0.7647    2.5222    0.2739 O   0  0  0  0  0  0  0  0  0  0  0  0
    2.7716   -0.4764   -0.0445 O   0  0  0  0  0  0  0  0  0  0  0  0
  1  2  1  0
  2  3  1  0
  3  4  1  0
  4  5  1  0
  5  6  1  0
  3  7  2  0
  1  8  2  0
  6  1  1  0
M  END

