
     RDKit          3D

 22 23  0  0  0  0  0  0  0  0999 V2000
    2.8402    0.6837   -0.5716 C   0  0  0  0  0  0  0  0  0  0  0  0
    3.8819    0.3176    0.2803 O   0  0  0  0  0  0  0  0  0  0  0  0
    5.3816    0.3505   -0.4776 P   0  0  0  0  0  5  0  0  0  0  0  0
    5.7595   -0.9729   -1.0834 O   0  0  0  0  0  0  0  0  0  0  0  0
    6.5633    0.8909    0.6102 O   0  0  0  0  0  1  0  0  0  0  0  0
    5.3106    1.4777   -1.7525 O   0  0  0  0  0  1  0  0  0  0  0  0
    1.5663    0.6151    0.2161 C   0  0  1  0  0  0  0  0  0  0  0  0
    0.4429    0.9593   -0.5228 O   0  0  0  0  0  0  0  0  0  0  0  0
   -0.6109    0.2925    0.1430 C   0  0  1  0  0  0  0  0  0  0  0  0
   -1.8297    0.3487   -0.5952 N   0  0  0  0  0  0  0  0  0  0  0  0
   -3.0458    0.0922   -0.1101 C   0  0  0  0  0  0  0  0  0  0  0  0
   -3.3482   -0.2833    1.2287 N   0  0  0  0  0  0  0  0  0  0  0  0
   -4.0004    0.2437   -1.1080 C   0  0  0  0  0  0  0  0  0  0  0  0
   -5.4388    0.0550   -0.9822 C   0  0  0  0  0  0  0  0  0  0  0  0
   -5.9811   -0.2802    0.0971 O   0  0  0  0  0  0  0  0  0  0  0  0
   -6.2505    0.2492   -2.0863 O   0  0  0  0  0  1  0  0  0  0  0  0
   -3.2970    0.5990   -2.1973 N   0  0  0  0  0  0  0  0  0  0  0  0
   -1.9844    0.6635   -1.8909 C   0  0  0  0  0  0  0  0  0  0  0  0
   -0.0380   -1.0961    0.2572 C   0  0  2  0  0  0  0  0  0  0  0  0
   -0.6734   -1.8558    1.2347 O   0  0  0  0  0  0  0  0  0  0  0  0
    1.3751   -0.7817    0.7122 C   0  0  2  0  0  0  0  0  0  0  0  0
    1.4567   -0.7483    2.1186 O   0  0  0  0  0  0  0  0  0  0  0  0
  1  2  1  0
  2  3  1  0
  3  4  2  0
  3  5  1  0
  3  6  1  0
  7  1  1  6
  7  8  1  0
  8  9  1  0
  9 10  1  6
 10 11  1  0
 11 12  1  0
 11 13  2  0
 13 14  1  0
 14 15  2  0
 14 16  1  0
 13 17  1  0
 17 18  2  0
  9 19  1  0
 19 20  1  1
 19 21  1  0
 21 22  1  1
 18 10  1  0
 21  7  1  0
M  CHG  3   5  -1   6  -1  16  -1
M  END

