
     RDKit          3D

 23 24  0  0  0  0  0  0  0  0999 V2000
    3.3913   -0.9750    0.0723 C   0  0  0  0  0  0  0  0  0  0  0  0
    4.3833   -0.1501   -0.4442 O   0  0  0  0  0  0  0  0  0  0  0  0
    5.9219   -0.5922    0.0738 P   0  0  0  0  0  5  0  0  0  0  0  0
    6.4810    0.5961    0.8608 O   0  0  0  0  0  0  0  0  0  0  0  0
    5.8810   -1.9011    1.1456 O   0  0  0  0  0  1  0  0  0  0  0  0
    6.9642   -0.9034   -1.2010 O   0  0  0  0  0  1  0  0  0  0  0  0
    2.0717   -0.4829   -0.4585 C   0  0  1  0  0  0  0  0  0  0  0  0
    0.9857   -1.2216   -0.0189 O   0  0  0  0  0  0  0  0  0  0  0  0
   -0.0980   -0.4737   -0.4783 C   0  0  2  0  0  0  0  0  0  0  0  0
    0.3054    0.9845   -0.4767 C   0  0  2  0  0  0  0  0  0  0  0  0
    0.5488    1.3988   -1.7914 O   0  0  0  0  0  0  0  0  0  0  0  0
    1.6953    0.8668    0.1801 C   0  0  2  0  0  0  0  0  0  0  0  0
    2.5358    1.8758   -0.2007 O   0  0  0  0  0  0  0  0  0  0  0  0
   -1.2707   -0.7015    0.3478 N   0  0  0  0  0  0  0  0  0  0  0  0
   -2.5475   -0.1465    0.1307 C   0  0  0  0  0  0  0  0  0  0  0  0
   -2.8333    0.6657   -0.8973 N   0  0  0  0  0  0  0  0  0  0  0  0
   -4.0790    1.1676   -1.0618 C   0  0  0  0  0  0  0  0  0  0  0  0
   -4.2901    1.9290   -2.0501 O   0  0  0  0  0  0  0  0  0  0  0  0
   -5.0640    0.8634   -0.1963 N   0  0  0  0  0  0  0  0  0  0  0  0
   -4.8189    0.0561    0.8422 C   0  0  0  0  0  0  0  0  0  0  0  0
   -5.7212   -0.2462    1.6686 O   0  0  0  0  0  0  0  0  0  0  0  0
   -3.5639   -0.4500    1.0087 C   0  0  0  0  0  0  0  0  0  0  0  0
   -3.3055   -1.3205    2.1313 N   0  0  0  0  0  0  0  0  0  0  0  0
  1  2  1  0
  2  3  1  0
  3  4  2  0
  3  5  1  0
  3  6  1  0
  7  1  1  1
  7  8  1  0
  8  9  1  0
  9 10  1  0
 10 11  1  6
 10 12  1  0
 12 13  1  6
  9 14  1  1
 14 15  1  0
 15 16  1  0
 16 17  1  0
 17 18  2  0
 17 19  1  0
 19 20  1  0
 20 21  2  0
 20 22  1  0
 22 23  1  0
 12  7  1  0
 22 15  2  0
M  CHG  2   5  -1   6  -1
M  END

