
     RDKit          3D

 23 23  0  0  0  0  0  0  0  0999 V2000
   -0.8852    0.8404   -1.8479 C   0  0  0  0  0  0  0  0  0  0  0  0
   -1.8807   -0.0586   -1.4385 N   0  0  0  0  0  0  0  0  0  0  0  0
   -2.5899   -0.1242   -0.2201 C   0  0  0  0  0  0  0  0  0  0  0  0
   -2.2883    0.6724    0.8503 N   0  0  0  0  0  0  0  0  0  0  0  0
   -2.9486    0.5512    2.0026 C   0  0  0  0  0  0  0  0  0  0  0  0
   -3.9176   -0.3268    2.1747 N   0  0  0  0  0  0  0  0  0  0  0  0
   -4.3065   -1.1657    1.1929 C   0  0  0  0  0  0  0  0  0  0  0  0
   -5.2102   -2.0229    1.2596 O   0  0  0  0  0  0  0  0  0  0  0  0
   -3.6105   -1.0469   -0.0399 C   0  0  0  0  0  0  0  0  0  0  0  0
   -3.9900   -1.8742   -1.1169 N   0  0  0  0  0  0  0  0  0  0  0  0
   -2.5735    1.3527    2.9497 O   0  0  0  0  0  0  0  0  0  0  0  0
    0.4257    1.0240   -1.2893 C   0  0  2  0  0  0  0  0  0  0  0  0
    1.1417    2.0605   -1.9557 O   0  0  0  0  0  0  0  0  0  0  0  0
    1.3819   -0.1221   -1.0615 C   0  0  2  0  0  0  0  0  0  0  0  0
    0.6000   -1.2424   -0.6017 O   0  0  0  0  0  0  0  0  0  0  0  0
    2.1569    0.2137    0.2180 C   0  0  2  0  0  0  0  0  0  0  0  0
    1.4018    0.8223    1.1622 O   0  0  0  0  0  0  0  0  0  0  0  0
    3.5431    0.7417    0.0965 C   0  0  0  0  0  0  0  0  0  0  0  0
    3.9978    0.5710    1.4741 O   0  0  0  0  0  0  0  0  0  0  0  0
    5.2700   -0.4877    1.5264 P   0  0  0  0  0  5  0  0  0  0  0  0
    5.8370   -0.9533    0.0258 O   0  0  0  0  0  1  0  0  0  0  0  0
    6.3505   -0.0945    2.4417 O   0  0  0  0  0  0  0  0  0  0  0  0
    4.5405   -1.9331    2.2635 O   0  0  0  0  0  1  0  0  0  0  0  0
  1  2  1  0
  2  3  1  0
  3  4  1  0
  4  5  1  0
  5  6  1  0
  6  7  1  0
  7  8  2  0
  7  9  1  0
  9 10  1  0
  5 11  2  0
  1 12  1  0
 12 13  1  6
 12 14  1  0
 14 15  1  1
 14 16  1  0
 16 17  1  6
 16 18  1  0
 18 19  1  0
 19 20  1  0
 20 21  1  0
 20 22  2  0
 20 23  1  0
  9  3  2  0
M  CHG  2  21  -1  23  -1
M  END

