
     RDKit          3D

 33 35  0  0  0  0  0  0  0  0999 V2000
   -2.7003    1.7490    0.0100 C   0  0  0  0  0  0  0  0  0  0  0  0
   -3.3144    0.4901   -0.3612 N   0  0  0  0  0  0  0  0  0  0  0  0
   -2.5010   -0.6355   -0.7641 C   0  0  2  0  0  0  0  0  0  0  0  0
   -3.1202   -1.4386   -1.8750 C   0  0  0  0  0  0  0  0  0  0  0  0
   -4.5615   -1.5034   -1.7864 N   0  0  0  0  0  0  0  0  0  0  0  0
   -5.3486   -0.6086   -1.0319 C   0  0  0  0  0  0  0  0  0  0  0  0
   -6.6965   -0.7465   -1.0228 N   0  0  0  0  0  0  0  0  0  0  0  0
   -7.4491    0.1065   -0.3028 C   0  0  0  0  0  0  0  0  0  0  0  0
   -8.8619    0.0272   -0.2432 N   0  0  0  0  0  0  0  0  0  0  0  0
   -6.8404    1.0971    0.4066 N   0  0  0  0  0  0  0  0  0  0  0  0
   -5.5136    1.2567    0.4158 C   0  0  0  0  0  0  0  0  0  0  0  0
   -4.9307    2.1679    1.0661 O   0  0  0  0  0  0  0  0  0  0  0  0
   -4.7336    0.3862   -0.3199 C   0  0  0  0  0  0  0  0  0  0  0  0
   -2.2850   -1.4794    0.4713 C   0  0  0  0  0  0  0  0  0  0  0  0
   -1.6148   -0.6849    1.4528 N   0  0  0  0  0  0  0  0  0  0  0  0
   -0.2609   -0.2977    1.2446 C   0  0  0  0  0  0  0  0  0  0  0  0
    0.3228    0.6836    2.0464 C   0  0  0  0  0  0  0  0  0  0  0  0
    1.6295    1.0767    1.8952 C   0  0  0  0  0  0  0  0  0  0  0  0
    2.4627    0.5116    0.9188 C   0  0  0  0  0  0  0  0  0  0  0  0
    3.8451    0.9501    0.7915 C   0  0  0  0  0  0  0  0  0  0  0  0
    4.2970    1.7558    1.6784 O   0  0  0  0  0  0  0  0  0  0  0  0
    4.6746    0.5168   -0.2620 N   0  0  0  0  0  0  0  0  0  0  0  0
    6.0490    1.0012   -0.3157 C   0  0  2  0  0  0  0  0  0  0  0  0
    6.3163    1.7755   -1.5275 C   0  0  0  0  0  0  0  0  0  0  0  0
    6.9654    1.2759   -2.4670 O   0  0  0  0  0  0  0  0  0  0  0  0
    5.8492    3.0684   -1.6368 O   0  0  0  0  0  1  0  0  0  0  0  0
    6.9515   -0.2005   -0.1685 C   0  0  0  0  0  0  0  0  0  0  0  0
    6.6465   -0.8538    1.1689 C   0  0  0  0  0  0  0  0  0  0  0  0
    7.5189   -2.0450    1.3482 C   0  0  0  0  0  0  0  0  0  0  0  0
    7.0741   -3.3339    1.1103 O   0  0  0  0  0  1  0  0  0  0  0  0
    8.6973   -1.8409    1.7302 O   0  0  0  0  0  0  0  0  0  0  0  0
    1.8846   -0.4531    0.1332 C   0  0  0  0  0  0  0  0  0  0  0  0
    0.5507   -0.8554    0.2869 C   0  0  0  0  0  0  0  0  0  0  0  0
  1  2  1  0
  2  3  1  0
  3  4  1  0
  4  5  1  0
  5  6  1  0
  6  7  1  0
  7  8  2  0
  8  9  1  0
  8 10  1  0
 10 11  1  0
 11 12  2  0
 11 13  1  0
  3 14  1  1
 14 15  1  0
 15 16  1  0
 16 17  2  0
 17 18  1  0
 18 19  2  0
 19 20  1  0
 20 21  2  0
 20 22  1  0
 22 23  1  0
 23 24  1  0
 24 25  2  0
 24 26  1  0
 23 27  1  6
 27 28  1  0
 28 29  1  0
 29 30  1  0
 29 31  2  0
 19 32  1  0
 32 33  2  0
 13  2  1  0
 13  6  2  0
 33 16  1  0
M  CHG  2  26  -1  30  -1
M  END

