
     RDKit          3D

 47 52  0  0  0  0  0  0  0  0999 V2000
    1.6897    1.3218   -1.1749 C   0  0  0  0  0  0  0  0  0  0  0  0
    1.0658    2.5737   -1.1562 O   0  0  0  0  0  0  0  0  0  0  0  0
   -0.5868    2.4125   -1.5738 P   0  0  0  0  0  5  0  0  0  0  0  0
   -1.4222    2.0486   -0.1922 O   0  0  0  0  0  0  0  0  0  0  0  0
   -2.3365    1.0255   -0.3054 C   0  0  1  0  0  0  0  0  0  0  0  0
   -2.0739   -0.1195    0.6146 C   0  0  1  0  0  0  0  0  0  0  0  0
   -0.8721    0.0927    1.2904 O   0  0  0  0  0  0  0  0  0  0  0  0
   -3.2605   -0.1480    1.5167 C   0  0  2  0  0  0  0  0  0  0  0  0
   -4.0024   -1.3756    1.4309 N   0  0  0  0  0  0  0  0  0  0  0  0
   -3.5020   -2.5746    1.1039 C   0  0  0  0  0  0  0  0  0  0  0  0
   -4.5084   -3.4834    1.1319 N   0  0  0  0  0  0  0  0  0  0  0  0
   -5.6441   -2.8695    1.4744 C   0  0  0  0  0  0  0  0  0  0  0  0
   -6.9283   -3.3201    1.6447 C   0  0  0  0  0  0  0  0  0  0  0  0
   -7.1751   -4.5391    1.4625 O   0  0  0  0  0  0  0  0  0  0  0  0
   -7.8979   -2.4436    2.0042 N   0  0  0  0  0  0  0  0  0  0  0  0
   -7.5792   -1.1448    2.1872 C   0  0  0  0  0  0  0  0  0  0  0  0
   -8.5999   -0.2408    2.5624 N   0  0  0  0  0  0  0  0  0  0  0  0
   -6.3211   -0.7021    2.0205 N   0  0  0  0  0  0  0  0  0  0  0  0
   -5.3146   -1.5283    1.6631 C   0  0  0  0  0  0  0  0  0  0  0  0
   -4.0193    0.9692    1.2859 O   0  0  0  0  0  0  0  0  0  0  0  0
   -3.7475    1.4434    0.0113 C   0  0  2  0  0  0  0  0  0  0  0  0
   -4.7258    0.7881   -0.9412 C   0  0  0  0  0  0  0  0  0  0  0  0
   -4.5166    1.2169   -2.2533 O   0  0  0  0  0  0  0  0  0  0  0  0
   -5.5792    0.5126   -3.3314 P   0  0  0  0  0  5  0  0  0  0  0  0
   -5.5267   -0.9958   -3.1922 O   0  0  0  0  0  0  0  0  0  0  0  0
   -5.0627    0.9255   -4.9062 O   0  0  0  0  0  1  0  0  0  0  0  0
   -7.1665    1.0083   -3.0996 O   0  0  0  0  0  1  0  0  0  0  0  0
   -0.7125    1.3160   -2.6053 O   0  0  0  0  0  0  0  0  0  0  0  0
   -1.0549    3.8649   -2.2886 O   0  0  0  0  0  1  0  0  0  0  0  0
    3.1225    1.5241   -0.8038 C   0  0  1  0  0  0  0  0  0  0  0  0
    3.8589    0.3505   -0.7848 O   0  0  0  0  0  0  0  0  0  0  0  0
    5.1700    0.8632   -0.6693 C   0  0  1  0  0  0  0  0  0  0  0  0
    6.1687   -0.1478   -0.8425 N   0  0  0  0  0  0  0  0  0  0  0  0
    6.7710   -0.5535   -1.9729 C   0  0  0  0  0  0  0  0  0  0  0  0
    7.6400   -1.5241   -1.6667 N   0  0  0  0  0  0  0  0  0  0  0  0
    7.6142   -1.7615   -0.3385 C   0  0  0  0  0  0  0  0  0  0  0  0
    8.2720   -2.6195    0.5123 C   0  0  0  0  0  0  0  0  0  0  0  0
    9.1225   -3.4190    0.0560 O   0  0  0  0  0  0  0  0  0  0  0  0
    7.9600   -2.5553    1.8312 N   0  0  0  0  0  0  0  0  0  0  0  0
    7.0607   -1.7129    2.3288 C   0  0  0  0  0  0  0  0  0  0  0  0
    6.7311   -1.6443    3.7183 N   0  0  0  0  0  0  0  0  0  0  0  0
    6.4212   -0.8765    1.4897 N   0  0  0  0  0  0  0  0  0  0  0  0
    6.6802   -0.8846    0.1686 C   0  0  0  0  0  0  0  0  0  0  0  0
    5.2570    1.9823   -1.6675 C   0  0  2  0  0  0  0  0  0  0  0  0
    5.9034    3.0973   -1.1694 O   0  0  0  0  0  0  0  0  0  0  0  0
    3.7951    2.3136   -1.9072 C   0  0  2  0  0  0  0  0  0  0  0  0
    3.5671    3.6898   -1.7462 O   0  0  0  0  0  0  0  0  0  0  0  0
  1  2  1  0
  2  3  1  0
  3  4  1  0
  5  4  1  1
  5  6  1  0
  6  7  1  1
  6  8  1  0
  8  9  1  6
  9 10  1  0
 10 11  2  0
 11 12  1  0
 12 13  1  0
 13 14  2  0
 13 15  1  0
 15 16  1  0
 16 17  1  0
 16 18  2  0
 18 19  1  0
  8 20  1  0
 20 21  1  0
 21 22  1  6
 22 23  1  0
 23 24  1  0
 24 25  2  0
 24 26  1  0
 24 27  1  0
  3 28  2  0
  3 29  1  0
 30  1  1  6
 30 31  1  0
 31 32  1  0
 32 33  1  6
 33 34  1  0
 34 35  2  0
 35 36  1  0
 36 37  1  0
 37 38  2  0
 37 39  1  0
 39 40  1  0
 40 41  1  0
 40 42  2  0
 42 43  1  0
 32 44  1  0
 44 45  1  1
 44 46  1  0
 46 47  1  1
 19  9  1  0
 19 12  2  0
 21  5  1  0
 43 33  1  0
 43 36  2  0
 46 30  1  0
M  CHG  3  26  -1  27  -1  29  -1
M  END

