
     RDKit          3D

 22 23  0  0  0  0  0  0  0  0999 V2000
   -0.2531   -1.3613    1.2263 C   0  0  0  0  0  0  0  0  0  0  0  0
    0.1997   -0.1382    0.5596 C   0  0  0  0  0  0  0  0  0  0  0  0
    1.6735    0.1624    0.6095 C   0  0  0  0  0  0  0  0  0  0  0  0
    2.3255   -0.9101   -0.0078 O   0  0  0  0  0  0  0  0  0  0  0  0
    3.9872   -0.6972   -0.0184 P   0  0  0  0  0  5  0  0  0  0  0  0
    4.5942   -1.4875   -1.1450 O   0  0  0  0  0  0  0  0  0  0  0  0
    4.6559   -1.2763    1.4259 O   0  0  0  0  0  1  0  0  0  0  0  0
    4.3728    0.9415   -0.1284 O   0  0  0  0  0  0  0  0  0  0  0  0
    5.8085    1.1816   -0.9833 P   0  0  0  0  0  5  0  0  0  0  0  0
    5.8682    0.2405   -2.1455 O   0  0  0  0  0  0  0  0  0  0  0  0
    7.1100    0.9174    0.0855 O   0  0  0  0  0  1  0  0  0  0  0  0
    5.8641    2.7953   -1.4636 O   0  0  0  0  0  1  0  0  0  0  0  0
   -0.5639    0.6952   -0.0629 N   0  0  0  0  0  0  0  0  0  0  0  0
   -1.9632    0.4911   -0.1593 C   0  0  0  0  0  0  0  0  0  0  0  0
   -2.8045    1.3815   -0.8283 C   0  0  0  0  0  0  0  0  0  0  0  0
   -2.3148    2.4130   -1.3737 O   0  0  0  0  0  0  0  0  0  0  0  0
   -4.1294    1.1646   -0.9053 N   0  0  0  0  0  0  0  0  0  0  0  0
   -4.6236    0.0609   -0.3172 C   0  0  0  0  0  0  0  0  0  0  0  0
   -6.0257   -0.1631   -0.4020 N   0  0  0  0  0  0  0  0  0  0  0  0
   -3.8256   -0.8181    0.3382 N   0  0  0  0  0  0  0  0  0  0  0  0
   -2.4871   -0.6361    0.4384 C   0  0  0  0  0  0  0  0  0  0  0  0
   -1.6641   -1.5707    1.1312 N   0  0  0  0  0  0  0  0  0  0  0  0
  1  2  1  0
  2  3  1  0
  3  4  1  0
  4  5  1  0
  5  6  2  0
  5  7  1  0
  5  8  1  0
  8  9  1  0
  9 10  2  0
  9 11  1  0
  9 12  1  0
  2 13  2  0
 13 14  1  0
 14 15  1  0
 15 16  2  0
 15 17  1  0
 17 18  1  0
 18 19  1  0
 18 20  2  0
 20 21  1  0
 21 22  1  0
 22  1  1  0
 21 14  2  0
M  CHG  3   7  -1  11  -1  12  -1
M  END

