
     RDKit          3D

 14 15  0  0  0  0  0  0  0  0999 V2000
    3.3836   -0.4765    0.8130 C   0  0  0  0  0  0  0  0  0  0  0  0
    4.1946    0.5880    0.4984 O   0  0  0  0  0  0  0  0  0  0  0  0
    1.9951   -0.2990    0.2424 C   0  0  0  0  0  0  0  0  0  0  0  0
    1.8040   -0.1674   -1.2183 C   0  0  0  0  0  0  0  0  0  0  0  0
    0.4345   -0.0050   -1.6209 N   0  0  0  0  0  0  0  0  0  0  0  0
   -0.6684    0.0316   -0.7274 C   0  0  0  0  0  0  0  0  0  0  0  0
   -1.9366    0.1856   -1.1449 N   0  0  0  0  0  0  0  0  0  0  0  0
   -2.9717    0.2192   -0.2959 C   0  0  0  0  0  0  0  0  0  0  0  0
   -4.3243    0.3808   -0.7069 N   0  0  0  0  0  0  0  0  0  0  0  0
   -2.7056    0.0921    1.0144 N   0  0  0  0  0  0  0  0  0  0  0  0
   -1.4392   -0.0662    1.4900 C   0  0  0  0  0  0  0  0  0  0  0  0
   -1.2046   -0.1832    2.7100 O   0  0  0  0  0  0  0  0  0  0  0  0
   -0.3747   -0.1004    0.6128 C   0  0  0  0  0  0  0  0  0  0  0  0
    0.9727   -0.2612    1.0198 N   0  0  0  0  0  0  0  0  0  0  0  0
  1  2  1  0
  1  3  1  0
  3  4  1  0
  4  5  1  0
  5  6  1  0
  6  7  1  0
  7  8  2  0
  8  9  1  0
  8 10  1  0
 10 11  1  0
 11 12  2  0
 11 13  1  0
 13 14  1  0
 14  3  2  0
 13  6  2  0
M  END

