
     RDKit          3D

  7  6  0  0  0  0  0  0  0  0999 V2000
   -1.6314    0.1052   -0.3340 C   0  0  0  0  0  0  0  0  0  0  0  0
   -0.5568    0.0442    0.6820 C   0  0  0  0  0  0  0  0  0  0  0  0
   -0.7649    0.4967    1.7894 O   0  0  0  0  0  0  0  0  0  0  0  0
    0.7498   -0.5561    0.3561 C   0  0  0  0  0  0  0  0  0  0  0  0
    1.6659    0.3591   -0.3519 C   0  0  0  0  0  0  0  0  0  0  0  0
    2.9156   -0.0863   -0.7010 O   0  0  0  0  0  1  0  0  0  0  0  0
    1.3453    1.5244   -0.6456 O   0  0  0  0  0  0  0  0  0  0  0  0
  1  2  1  0
  2  3  2  0
  2  4  1  0
  4  5  1  0
  5  6  1  0
  5  7  2  0
M  CHG  1   6  -1
M  END

