
     RDKit          3D

  3  2  0  0  0  0  0  0  0  0999 V2000
   -0.6229   -0.0054    0.0728 C   0  0  0  0  0  0  0  0  0  0  0  0
    0.8407   -0.0041   -0.1158 C   0  0  0  0  0  0  0  0  0  0  0  0
    1.4991    0.9473    0.2307 O   0  0  0  0  0  0  0  0  0  0  0  0
  1  2  1  0
  2  3  2  0
M  END

