
     RDKit          3D

  5  4  0  0  0  0  0  0  0  0999 V2000
    1.1981    0.6425    0.1591 C   0  0  0  0  0  0  0  0  0  0  0  0
    0.3404   -0.5110    0.5053 C   0  0  0  0  0  0  0  0  0  0  0  0
    0.7116   -1.3093    1.3523 O   0  0  0  0  0  0  0  0  0  0  0  0
   -0.9607   -0.6883   -0.1776 C   0  0  0  0  0  0  0  0  0  0  0  0
   -1.1182    0.3507   -1.0755 O   0  0  0  0  0  0  0  0  0  0  0  0
  1  2  1  0
  2  3  2  0
  2  4  1  0
  4  5  1  0
M  END

