
     RDKit          3D

 12 11  0  0  0  0  0  0  0  0999 V2000
    3.3074   -1.5837    0.0431 C   0  0  0  0  0  0  0  0  0  0  0  0
    2.2228   -0.7241   -0.4966 C   0  0  0  0  0  0  0  0  0  0  0  0
    2.1982   -0.4443   -1.7145 O   0  0  0  0  0  0  0  0  0  0  0  0
    1.2274   -0.2239    0.3497 N   0  0  0  0  0  0  0  0  0  0  0  0
    0.1455    0.6265   -0.1486 C   0  0  2  0  0  0  0  0  0  0  0  0
    0.2898    1.9328    0.5122 C   0  0  0  0  0  0  0  0  0  0  0  0
   -0.5798    2.2818    1.5204 O   0  0  0  0  0  1  0  0  0  0  0  0
    1.1937    2.7171    0.1604 O   0  0  0  0  0  0  0  0  0  0  0  0
   -1.1345   -0.0738    0.2144 C   0  0  0  0  0  0  0  0  0  0  0  0
   -2.3760    0.6584   -0.2239 C   0  0  0  0  0  0  0  0  0  0  0  0
   -3.5411   -0.1631    0.2096 C   0  0  0  0  0  0  0  0  0  0  0  0
   -3.9291   -1.1340   -0.4144 O   0  0  0  0  0  0  0  0  0  0  0  0
  1  2  1  0
  2  3  2  0
  2  4  1  0
  4  5  1  0
  5  6  1  0
  6  7  1  0
  6  8  2  0
  5  9  1  1
  9 10  1  0
 10 11  1  0
 11 12  2  0
M  CHG  1   7  -1
M  END

