
     RDKit          3D

 19 19  0  0  0  0  0  0  0  0999 V2000
   -5.1215   -0.0433   -0.0359 C   0  0  0  0  0  0  0  0  0  0  0  0
   -3.7671   -0.2742   -0.5711 C   0  0  0  0  0  0  0  0  0  0  0  0
   -3.6174   -0.8476   -1.6724 O   0  0  0  0  0  0  0  0  0  0  0  0
   -2.6229    0.1419    0.1396 N   0  0  0  0  0  0  0  0  0  0  0  0
   -1.2728   -0.0740   -0.3667 C   0  0  1  0  0  0  0  0  0  0  0  0
   -0.5911    1.2507   -0.6718 C   0  0  1  0  0  0  0  0  0  0  0  0
   -0.4211    2.0411    0.4315 O   0  0  0  0  0  0  0  0  0  0  0  0
    0.6753    0.8988   -1.1593 O   0  0  0  0  0  0  0  0  0  0  0  0
    1.4645    0.6233   -0.0539 C   0  0  2  0  0  0  0  0  0  0  0  0
    2.8163    0.1631   -0.5598 C   0  0  0  0  0  0  0  0  0  0  0  0
    3.6753   -0.1362    0.5096 O   0  0  0  0  0  0  0  0  0  0  0  0
    5.1593   -0.6413   -0.0762 P   0  0  0  0  0  5  0  0  0  0  0  0
    5.9395   -1.3546    0.9901 O   0  0  0  0  0  0  0  0  0  0  0  0
    4.9378   -1.6435   -1.4089 O   0  0  0  0  0  1  0  0  0  0  0  0
    6.0453    0.7303   -0.5402 O   0  0  0  0  0  1  0  0  0  0  0  0
    0.8816   -0.3365    0.9054 C   0  0  1  0  0  0  0  0  0  0  0  0
    0.8233    0.2590    2.1871 O   0  0  0  0  0  0  0  0  0  0  0  0
   -0.4424   -0.9135    0.5345 C   0  0  2  0  0  0  0  0  0  0  0  0
   -0.3045   -2.2014    0.0151 O   0  0  0  0  0  0  0  0  0  0  0  0
  1  2  1  0
  2  3  2  0
  2  4  1  0
  5  4  1  1
  5  6  1  0
  6  7  1  1
  6  8  1  0
  8  9  1  0
  9 10  1  6
 10 11  1  0
 11 12  1  0
 12 13  2  0
 12 14  1  0
 12 15  1  0
  9 16  1  0
 16 17  1  1
 16 18  1  0
 18 19  1  6
 18  5  1  0
M  CHG  2  14  -1  15  -1
M  END

