
     RDKit          3D

 15 15  0  0  0  0  0  0  0  0999 V2000
    4.4326    0.6724    0.1873 C   0  0  0  0  0  0  0  0  0  0  0  0
    3.0457    1.0916   -0.0540 C   0  0  0  0  0  0  0  0  0  0  0  0
    1.9921    0.1477   -0.0298 N   0  0  0  0  0  0  0  0  0  0  0  0
    0.6040    0.5194   -0.2634 C   0  0  2  0  0  0  0  0  0  0  0  0
   -0.2383    0.2956    0.9820 C   0  0  2  0  0  0  0  0  0  0  0  0
   -1.1185   -0.9093    0.7971 C   0  0  2  0  0  0  0  0  0  0  0  0
   -1.9413   -0.7928   -0.4395 C   0  0  2  0  0  0  0  0  0  0  0  0
   -1.3843    0.0592   -1.3936 O   0  0  0  0  0  0  0  0  0  0  0  0
    0.0149   -0.1339   -1.4677 C   0  0  0  0  0  0  0  0  0  0  0  0
    0.2270   -1.4817   -1.5648 O   0  0  0  0  0  0  0  0  0  0  0  0
   -3.2924   -0.1833   -0.0583 C   0  0  0  0  0  0  0  0  0  0  0  0
   -4.0562   -0.1298   -1.2374 O   0  0  0  0  0  0  0  0  0  0  0  0
   -1.9796   -1.0016    1.8961 O   0  0  0  0  0  0  0  0  0  0  0  0
   -1.0933    1.3991    1.2011 O   0  0  0  0  0  0  0  0  0  0  0  0
    2.7912    2.2998   -0.2842 O   0  0  0  0  0  0  0  0  0  0  0  0
  1  2  1  0
  2  3  1  0
  4  3  1  1
  4  5  1  0
  5  6  1  0
  6  7  1  0
  7  8  1  0
  8  9  1  0
  9 10  1  0
  7 11  1  1
 11 12  1  0
  6 13  1  1
  5 14  1  6
  2 15  2  0
  9  4  1  0
M  END

