
     RDKit          3D

 13 12  0  0  0  0  0  0  0  0999 V2000
    3.0523   -1.0242    0.8408 C   0  0  0  0  0  0  0  0  0  0  0  0
    2.0166   -0.5311   -0.0897 C   0  0  0  0  0  0  0  0  0  0  0  0
    2.0340   -0.9639   -1.2694 O   0  0  0  0  0  0  0  0  0  0  0  0
    1.0264    0.3859    0.2780 N   0  0  0  0  0  0  0  0  0  0  0  0
    0.0006    0.8884   -0.6053 C   0  0  2  0  0  0  0  0  0  0  0  0
    0.1586    2.3542   -0.7155 C   0  0  0  0  0  0  0  0  0  0  0  0
   -0.7543    3.2431   -0.1595 O   0  0  0  0  0  1  0  0  0  0  0  0
    1.1643    2.8369   -1.3406 O   0  0  0  0  0  0  0  0  0  0  0  0
   -1.3938    0.5643   -0.2044 C   0  0  0  0  0  0  0  0  0  0  0  0
   -1.6623   -0.9162   -0.1266 C   0  0  0  0  0  0  0  0  0  0  0  0
   -3.0714   -1.1429    0.2769 C   0  0  0  0  0  0  0  0  0  0  0  0
   -3.4666   -1.0875    1.4634 O   0  0  0  0  0  0  0  0  0  0  0  0
   -4.0088   -1.4309   -0.7031 O   0  0  0  0  0  1  0  0  0  0  0  0
  1  2  1  0
  2  3  2  0
  2  4  1  0
  4  5  1  0
  5  6  1  0
  6  7  1  0
  6  8  2  0
  5  9  1  1
  9 10  1  0
 10 11  1  0
 11 12  2  0
 11 13  1  0
M  CHG  2   7  -1  13  -1
M  END

