
     RDKit          3D

 12 11  0  0  0  0  0  0  0  0999 V2000
   -0.2941   -1.7078   -0.7462 C   0  0  0  0  0  0  0  0  0  0  0  0
   -0.0635   -2.6926    0.1870 O   0  0  0  0  0  1  0  0  0  0  0  0
   -0.4956   -2.0110   -1.9311 O   0  0  0  0  0  0  0  0  0  0  0  0
   -0.2991   -0.3188   -0.3320 C   0  0  0  0  0  0  0  0  0  0  0  0
   -0.0602   -0.0245    1.0879 C   0  0  0  0  0  0  0  0  0  0  0  0
    1.2833   -0.5145    1.5329 C   0  0  0  0  0  0  0  0  0  0  0  0
    1.6541   -0.3469    2.7202 O   0  0  0  0  0  0  0  0  0  0  0  0
    2.1574   -1.1608    0.6711 O   0  0  0  0  0  1  0  0  0  0  0  0
   -0.5197    0.6201   -1.2253 C   0  0  0  0  0  0  0  0  0  0  0  0
   -0.5607    2.0466   -0.9978 C   0  0  0  0  0  0  0  0  0  0  0  0
   -0.7962    2.7617   -2.0305 O   0  0  0  0  0  0  0  0  0  0  0  0
   -0.3812    2.7257    0.1707 O   0  0  0  0  0  1  0  0  0  0  0  0
  1  2  1  0
  1  3  2  0
  1  4  1  0
  4  5  1  0
  5  6  1  0
  6  7  2  0
  6  8  1  0
  4  9  2  0
  9 10  1  0
 10 11  2  0
 10 12  1  0
M  CHG  3   2  -1   8  -1  12  -1
M  END

