
     RDKit          3D

 27 29  0  0  0  0  0  0  0  0999 V2000
    2.2127    1.3979   -0.8292 C   0  0  0  0  0  0  0  0  0  0  0  0
    2.9484    0.5807   -1.7387 O   0  0  0  0  0  0  0  0  0  0  0  0
    4.3929    0.1023   -1.0845 P   0  0  0  0  0  5  0  0  0  0  0  0
    4.1816   -1.4080   -0.5996 O   0  0  0  0  0  0  0  0  0  0  0  0
    5.6134   -0.0012   -2.1905 O   0  0  0  0  0  1  0  0  0  0  0  0
    4.8587    0.8734    0.3310 O   0  0  0  0  0  0  0  0  0  0  0  0
    6.5246    0.5215    0.5416 P   0  0  0  0  0  5  0  0  0  0  0  0
    7.2355    1.3816   -0.5169 O   0  0  0  0  0  0  0  0  0  0  0  0
    6.7849   -1.0976    0.1381 O   0  0  0  0  0  1  0  0  0  0  0  0
    7.0587    0.8743    2.0835 O   0  0  0  0  0  1  0  0  0  0  0  0
    1.0434    0.5382   -0.5479 C   0  0  1  0  0  0  0  0  0  0  0  0
    0.0285    0.9107    0.2691 O   0  0  0  0  0  0  0  0  0  0  0  0
   -0.5584   -0.3498    0.4387 C   0  0  1  0  0  0  0  0  0  0  0  0
   -1.8304   -0.3884    1.0402 N   0  0  0  0  0  0  0  0  0  0  0  0
   -2.9389    0.2115    0.6338 C   0  0  0  0  0  0  0  0  0  0  0  0
   -4.0223   -0.1621    1.4409 C   0  0  0  0  0  0  0  0  0  0  0  0
   -3.4932   -1.0091    2.3475 N   0  0  0  0  0  0  0  0  0  0  0  0
   -2.1966   -1.1274    2.0891 C   0  0  0  0  0  0  0  0  0  0  0  0
   -5.2831    0.2775    1.2605 C   0  0  0  0  0  0  0  0  0  0  0  0
   -6.3310   -0.1915    2.0919 N   0  0  0  0  0  0  0  0  0  0  0  0
   -5.5400    1.1467    0.2472 N   0  0  0  0  0  0  0  0  0  0  0  0
   -4.5204    1.5073   -0.5226 C   0  0  0  0  0  0  0  0  0  0  0  0
   -3.2554    1.0821   -0.3658 N   0  0  0  0  0  0  0  0  0  0  0  0
   -0.6798   -0.9182   -0.9932 C   0  0  2  0  0  0  0  0  0  0  0  0
   -0.2545   -2.2447   -1.0087 O   0  0  0  0  0  0  0  0  0  0  0  0
    0.3655   -0.0942   -1.7357 C   0  0  2  0  0  0  0  0  0  0  0  0
    1.2743   -0.9099   -2.4050 O   0  0  0  0  0  0  0  0  0  0  0  0
  1  2  1  0
  2  3  1  0
  3  4  2  0
  3  5  1  0
  3  6  1  0
  6  7  1  0
  7  8  2  0
  7  9  1  0
  7 10  1  0
 11  1  1  6
 11 12  1  0
 12 13  1  0
 13 14  1  6
 14 15  1  0
 15 16  2  0
 16 17  1  0
 17 18  2  0
 16 19  1  0
 19 20  1  0
 19 21  2  0
 21 22  1  0
 22 23  2  0
 13 24  1  0
 24 25  1  1
 24 26  1  0
 26 27  1  1
 18 14  1  0
 23 15  1  0
 26 11  1  0
M  CHG  3   5  -1   9  -1  10  -1
M  END

