
     RDKit          3D

 38 41  0  0  0  0  0  0  0  0999 V2000
   -7.9623    2.1282    0.7839 C   0  0  0  0  0  0  0  0  0  0  0  0
   -6.9250    1.2038    0.1445 C   0  0  2  0  0  0  0  0  0  0  0  0
   -7.6241   -0.0135   -0.4711 C   0  0  2  0  0  0  0  0  0  0  0  0
   -6.5350   -0.7937   -1.1539 C   0  0  1  0  0  0  0  0  0  0  0  0
   -5.3266   -1.0199   -0.3297 C   0  0  2  0  0  0  0  0  0  0  0  0
   -5.0653   -0.0422    0.7491 C   0  0  2  0  0  0  0  0  0  0  0  0
   -6.1250    0.7298    1.1482 O   0  0  0  0  0  0  0  0  0  0  0  0
   -4.0422    0.8133    0.3376 O   0  0  0  0  0  0  0  0  0  0  0  0
   -2.6913    0.7220    1.3270 P   0  0  0  0  0  5  0  0  0  0  0  0
   -1.3952    0.0117    0.5038 O   0  0  0  0  0  0  0  0  0  0  0  0
   -0.4414    1.2709   -0.1055 P   0  0  0  0  0  5  0  0  0  0  0  0
    0.8775    0.6217   -0.9293 O   0  0  0  0  0  0  0  0  0  0  0  0
    1.3690   -0.4333   -0.1622 C   0  0  0  0  0  0  0  0  0  0  0  0
    2.5553   -1.0165   -0.9040 C   0  0  1  0  0  0  0  0  0  0  0  0
    3.5579   -0.1058   -1.1010 O   0  0  0  0  0  0  0  0  0  0  0  0
    4.7663   -0.7427   -1.1071 C   0  0  1  0  0  0  0  0  0  0  0  0
    5.6703   -0.0638   -0.1675 N   0  0  0  0  0  0  0  0  0  0  0  0
    6.9532    0.2981   -0.3733 C   0  0  0  0  0  0  0  0  0  0  0  0
    7.4542    0.9113    0.7540 C   0  0  0  0  0  0  0  0  0  0  0  0
    6.4593    0.9170    1.6462 N   0  0  0  0  0  0  0  0  0  0  0  0
    5.3747    0.3208    1.0776 C   0  0  0  0  0  0  0  0  0  0  0  0
    8.7546    1.3881    0.8267 C   0  0  0  0  0  0  0  0  0  0  0  0
    9.2537    2.0178    1.9977 N   0  0  0  0  0  0  0  0  0  0  0  0
    9.5130    1.2213   -0.2693 N   0  0  0  0  0  0  0  0  0  0  0  0
    9.0413    0.6231   -1.3840 C   0  0  0  0  0  0  0  0  0  0  0  0
    7.7771    0.1695   -1.4293 N   0  0  0  0  0  0  0  0  0  0  0  0
    4.5893   -2.1455   -0.6334 C   0  0  2  0  0  0  0  0  0  0  0  0
    4.5243   -3.0671   -1.6907 O   0  0  0  0  0  0  0  0  0  0  0  0
    3.1733   -2.1011   -0.0486 C   0  0  2  0  0  0  0  0  0  0  0  0
    2.5415   -3.3281   -0.2040 O   0  0  0  0  0  0  0  0  0  0  0  0
    0.1120    2.0697    1.0675 O   0  0  0  0  0  0  0  0  0  0  0  0
   -1.3510    2.2934   -1.0939 O   0  0  0  0  0  1  0  0  0  0  0  0
   -2.2679    2.0805    1.8057 O   0  0  0  0  0  0  0  0  0  0  0  0
   -3.0280   -0.2935    2.6618 O   0  0  0  0  0  1  0  0  0  0  0  0
   -4.2170   -1.0763   -1.2042 O   0  0  0  0  0  0  0  0  0  0  0  0
   -7.1026   -2.0101   -1.5994 O   0  0  0  0  0  0  0  0  0  0  0  0
   -8.5396    0.3862   -1.4443 O   0  0  0  0  0  0  0  0  0  0  0  0
   -7.2634    3.1525    1.4084 O   0  0  0  0  0  0  0  0  0  0  0  0
  2  1  1  1
  2  3  1  0
  3  4  1  0
  4  5  1  0
  5  6  1  0
  6  7  1  0
  6  8  1  6
  8  9  1  0
  9 10  1  0
 10 11  1  0
 11 12  1  0
 12 13  1  0
 14 13  1  1
 14 15  1  0
 15 16  1  0
 16 17  1  1
 17 18  1  0
 18 19  2  0
 19 20  1  0
 20 21  2  0
 19 22  1  0
 22 23  1  0
 22 24  2  0
 24 25  1  0
 25 26  2  0
 16 27  1  0
 27 28  1  6
 27 29  1  0
 29 30  1  6
 11 31  2  0
 11 32  1  0
  9 33  2  0
  9 34  1  0
  5 35  1  6
  4 36  1  1
  3 37  1  6
  1 38  1  0
  7  2  1  0
 21 17  1  0
 26 18  1  0
 29 14  1  0
M  CHG  2  32  -1  34  -1
M  END

