
     RDKit          3D

 40 43  0  0  0  0  0  0  0  0999 V2000
   -8.9785    1.1566   -0.0612 C   0  0  0  0  0  0  0  0  0  0  0  0
   -7.7239    1.5186    0.7149 C   0  0  1  0  0  0  0  0  0  0  0  0
   -6.5350    0.7809    0.1741 C   0  0  1  0  0  0  0  0  0  0  0  0
   -5.3515    1.4236    0.6470 O   0  0  0  0  0  0  0  0  0  0  0  0
   -4.2758    0.7380    0.1465 C   0  0  1  0  0  0  0  0  0  0  0  0
   -3.4866    0.1303    1.1143 O   0  0  0  0  0  0  0  0  0  0  0  0
   -1.9148    0.7531    1.1560 P   0  0  0  0  0  5  0  0  0  0  0  0
   -0.8727   -0.1125    0.1615 O   0  0  0  0  0  0  0  0  0  0  0  0
   -0.2500    0.8092   -1.0964 P   0  0  0  0  0  5  0  0  0  0  0  0
    1.2055    0.1028   -1.5831 O   0  0  0  0  0  0  0  0  0  0  0  0
    1.7728   -0.5278   -0.5033 C   0  0  0  0  0  0  0  0  0  0  0  0
    3.0889   -1.1951   -0.8410 C   0  0  1  0  0  0  0  0  0  0  0  0
    4.0046   -0.2636   -1.2986 O   0  0  0  0  0  0  0  0  0  0  0  0
    5.2687   -0.7652   -1.1117 C   0  0  1  0  0  0  0  0  0  0  0  0
    6.1652    0.2725   -0.6331 N   0  0  0  0  0  0  0  0  0  0  0  0
    7.4055    0.0684   -0.1807 C   0  0  0  0  0  0  0  0  0  0  0  0
    7.9402    1.2749    0.1800 C   0  0  0  0  0  0  0  0  0  0  0  0
    7.0063    2.2128   -0.0603 N   0  0  0  0  0  0  0  0  0  0  0  0
    5.9383    1.5898   -0.5520 C   0  0  0  0  0  0  0  0  0  0  0  0
    9.2200    1.3478    0.6831 C   0  0  0  0  0  0  0  0  0  0  0  0
    9.8113    2.5913    1.0705 N   0  0  0  0  0  0  0  0  0  0  0  0
    9.9125    0.1941    0.8025 N   0  0  0  0  0  0  0  0  0  0  0  0
    9.3991   -0.9802    0.4542 C   0  0  0  0  0  0  0  0  0  0  0  0
    8.1450   -1.0258   -0.0355 N   0  0  0  0  0  0  0  0  0  0  0  0
    5.2075   -1.8301   -0.0582 C   0  0  2  0  0  0  0  0  0  0  0  0
    5.3309   -3.0952   -0.6382 O   0  0  0  0  0  0  0  0  0  0  0  0
    3.7580   -1.7059    0.4153 C   0  0  2  0  0  0  0  0  0  0  0  0
    3.2481   -2.9043    0.8589 O   0  0  0  0  0  0  0  0  0  0  0  0
    0.0667    2.2279   -0.6422 O   0  0  0  0  0  0  0  0  0  0  0  0
   -1.2656    0.9041   -2.4200 O   0  0  0  0  0  1  0  0  0  0  0  0
   -1.4139    0.5985    2.5787 O   0  0  0  0  0  0  0  0  0  0  0  0
   -1.8990    2.4094    0.8017 O   0  0  0  0  0  1  0  0  0  0  0  0
   -4.5831   -0.2799   -0.9072 C   0  0  2  0  0  0  0  0  0  0  0  0
   -5.5691   -1.3419   -0.4381 C   0  0  2  0  0  0  0  0  0  0  0  0
   -6.3714   -0.6338    0.6761 C   0  0  2  0  0  0  0  0  0  0  0  0
   -7.4997   -1.3172    0.9864 O   0  0  0  0  0  0  0  0  0  0  0  0
   -4.9475   -2.4551    0.0798 O   0  0  0  0  0  0  0  0  0  0  0  0
   -3.3774   -0.9778   -1.1519 O   0  0  0  0  0  0  0  0  0  0  0  0
   -7.5738    2.9125    0.3772 O   0  0  0  0  0  0  0  0  0  0  0  0
   -9.4224   -0.1293    0.0739 O   0  0  0  0  0  0  0  0  0  0  0  0
  1  2  1  0
  2  3  1  0
  3  4  1  1
  4  5  1  0
  5  6  1  1
  6  7  1  0
  7  8  1  0
  8  9  1  0
  9 10  1  0
 10 11  1  0
 12 11  1  1
 12 13  1  0
 13 14  1  0
 14 15  1  1
 15 16  1  0
 16 17  2  0
 17 18  1  0
 18 19  2  0
 17 20  1  0
 20 21  1  0
 20 22  2  0
 22 23  1  0
 23 24  2  0
 14 25  1  0
 25 26  1  6
 25 27  1  0
 27 28  1  6
  9 29  2  0
  9 30  1  0
  7 31  2  0
  7 32  1  0
  5 33  1  0
 33 34  1  0
 34 35  1  0
 35 36  1  6
 34 37  1  1
 33 38  1  1
  2 39  1  6
  1 40  1  0
 19 15  1  0
 24 16  1  0
 27 12  1  0
 35  3  1  0
M  CHG  2  30  -1  32  -1
M  END

