
     RDKit          3D

  9  8  0  0  0  0  0  0  0  0999 V2000
   -0.4496   -1.2340   -0.8566 C   0  0  0  0  0  0  0  0  0  0  0  0
    0.2953   -0.0582   -0.3192 C   0  0  0  0  0  0  0  0  0  0  0  0
    1.6199   -0.4276    0.3035 C   0  0  0  0  0  0  0  0  0  0  0  0
    2.2505    0.8776    0.8004 C   0  0  0  0  0  0  0  0  0  0  0  0
    3.5309    0.6418    1.4187 N   0  0  0  0  0  4  0  0  0  0  0  0
   -1.6964   -0.7709   -1.4305 N   0  0  0  0  0  0  0  0  0  0  0  0
   -2.7154   -0.1050   -0.7155 C   0  0  0  0  0  0  0  0  0  0  0  0
   -2.6103    0.1769    0.6811 N   0  0  0  0  0  0  0  0  0  0  0  0
   -3.7803    0.2633   -1.3201 N   0  0  0  0  0  4  0  0  0  0  0  0
  1  2  1  0
  2  3  1  0
  3  4  1  0
  4  5  1  0
  1  6  1  0
  6  7  1  0
  7  8  1  0
  7  9  2  0
M  CHG  2   5   1   9   1
M  END

