
     RDKit          3D

 26 28  0  0  0  0  0  0  0  0999 V2000
    2.9158   -0.6184    0.8218 C   0  0  0  0  0  0  0  0  0  0  0  0
    2.7339   -2.3822    0.5791 S   0  0  0  0  0  0  0  0  0  0  0  0
    1.1697   -2.8502   -0.1883 C   0  0  0  0  0  0  0  0  0  0  0  0
    0.0497   -2.5264    0.7646 C   0  0  1  0  0  0  0  0  0  0  0  0
    0.0006   -1.1918    1.0672 O   0  0  0  0  0  0  0  0  0  0  0  0
   -1.2908   -0.8439    1.4322 C   0  0  1  0  0  0  0  0  0  0  0  0
   -1.7025    0.4348    0.9151 N   0  0  0  0  0  0  0  0  0  0  0  0
   -2.3873    0.7238   -0.1998 C   0  0  0  0  0  0  0  0  0  0  0  0
   -2.5612    2.0858   -0.3052 C   0  0  0  0  0  0  0  0  0  0  0  0
   -1.9631    2.6222    0.7771 N   0  0  0  0  0  0  0  0  0  0  0  0
   -1.4493    1.6160    1.5046 C   0  0  0  0  0  0  0  0  0  0  0  0
   -3.2446    2.5712   -1.3916 C   0  0  0  0  0  0  0  0  0  0  0  0
   -3.4196    3.9723   -1.4930 N   0  0  0  0  0  0  0  0  0  0  0  0
   -3.7194    1.7147   -2.3116 N   0  0  0  0  0  0  0  0  0  0  0  0
   -3.5272    0.3908   -2.1699 C   0  0  0  0  0  0  0  0  0  0  0  0
   -2.8654   -0.1361   -1.1256 N   0  0  0  0  0  0  0  0  0  0  0  0
   -2.1899   -1.9720    1.0696 C   0  0  2  0  0  0  0  0  0  0  0  0
   -2.4587   -2.7790    2.1934 O   0  0  0  0  0  0  0  0  0  0  0  0
   -1.3103   -2.7947    0.1527 C   0  0  2  0  0  0  0  0  0  0  0  0
   -1.6371   -4.1490    0.2092 O   0  0  0  0  0  0  0  0  0  0  0  0
    2.9969    0.1194   -0.4968 C   0  0  0  0  0  0  0  0  0  0  0  0
    3.1508    1.6092   -0.2909 C   0  0  1  0  0  0  0  0  0  0  0  0
    4.3874    1.9256    0.4737 C   0  0  0  0  0  0  0  0  0  0  0  0
    5.4511    2.2976   -0.1089 O   0  0  0  0  0  0  0  0  0  0  0  0
    4.3659    1.8086    1.8528 O   0  0  0  0  0  1  0  0  0  0  0  0
    3.2991    2.2253   -1.6053 N   0  0  0  0  0  4  0  0  0  0  0  0
  1  2  1  0
  2  3  1  0
  4  3  1  6
  4  5  1  0
  5  6  1  0
  6  7  1  6
  7  8  1  0
  8  9  2  0
  9 10  1  0
 10 11  2  0
  9 12  1  0
 12 13  1  0
 12 14  2  0
 14 15  1  0
 15 16  2  0
  6 17  1  0
 17 18  1  1
 17 19  1  0
 19 20  1  1
  1 21  1  0
 21 22  1  0
 22 23  1  0
 23 24  2  0
 23 25  1  0
 22 26  1  6
 11  7  1  0
 16  8  1  0
 19  4  1  0
M  CHG  2  25  -1  26   1
M  END

