
     RDKit          3D

 30 31  0  0  0  0  0  0  0  0999 V2000
   -2.4012   -1.3337    1.3636 C   0  0  0  0  0  0  0  0  0  0  0  0
   -3.4667   -1.3307    0.4178 N   0  0  0  0  0  0  0  0  0  0  0  0
   -3.7398   -0.2400   -0.4433 C   0  0  0  0  0  0  0  0  0  0  0  0
   -4.7786   -0.2995   -1.3300 N   0  0  0  0  0  0  0  0  0  0  0  0
   -4.9801    0.7671   -2.1141 C   0  0  0  0  0  0  0  0  0  0  0  0
   -6.0687    0.7431   -3.0650 N   0  0  0  0  0  0  0  0  0  0  0  0
   -4.2232    1.8777   -2.0739 N   0  0  0  0  0  0  0  0  0  0  0  0
   -3.2018    1.9434   -1.2061 C   0  0  0  0  0  0  0  0  0  0  0  0
   -2.4652    2.9498   -1.1248 O   0  0  0  0  0  0  0  0  0  0  0  0
   -2.9373    0.8736   -0.3645 C   0  0  0  0  0  0  0  0  0  0  0  0
   -1.8785    0.8874    0.5659 N   0  0  0  0  0  0  0  0  0  0  0  0
   -1.6022   -0.0814    1.3606 C   0  0  0  0  0  0  0  0  0  0  0  0
   -0.4613    0.0690    2.2862 C   0  0  2  0  0  0  0  0  0  0  0  0
    0.1271    1.3130    2.0904 O   0  0  0  0  0  0  0  0  0  0  0  0
    0.5893   -0.9944    2.0522 C   0  0  2  0  0  0  0  0  0  0  0  0
    1.6162   -0.7772    2.9689 O   0  0  0  0  0  0  0  0  0  0  0  0
    1.1270   -0.8765    0.6201 C   0  0  0  0  0  0  0  0  0  0  0  0
    2.1131   -1.8503    0.5018 O   0  0  0  0  0  0  0  0  0  0  0  0
    2.8136   -1.8552   -1.0301 P   0  0  0  0  0  5  0  0  0  0  0  0
    1.6616   -2.4148   -2.1298 O   0  0  0  0  0  1  0  0  0  0  0  0
    4.0139   -2.8030   -0.9571 O   0  0  0  0  0  0  0  0  0  0  0  0
    3.2999   -0.2834   -1.3864 O   0  0  0  0  0  0  0  0  0  0  0  0
    4.9591   -0.0713   -1.1500 P   0  0  0  0  0  5  0  0  0  0  0  0
    5.7365   -1.5638   -1.4142 O   0  0  0  0  0  1  0  0  0  0  0  0
    5.4542    0.9776   -2.1065 O   0  0  0  0  0  0  0  0  0  0  0  0
    5.2563    0.4646    0.4245 O   0  0  0  0  0  0  0  0  0  0  0  0
    6.4420    1.6978    0.4318 P   0  0  0  0  0  5  0  0  0  0  0  0
    7.2391    1.6708   -1.0638 O   0  0  0  0  0  1  0  0  0  0  0  0
    7.4321    1.3500    1.5099 O   0  0  0  0  0  0  0  0  0  0  0  0
    5.7131    3.2076    0.7034 O   0  0  0  0  0  1  0  0  0  0  0  0
  1  2  1  0
  2  3  1  0
  3  4  1  0
  4  5  2  0
  5  6  1  0
  5  7  1  0
  7  8  1  0
  8  9  2  0
  8 10  1  0
 10 11  1  0
 11 12  2  0
 12 13  1  0
 13 14  1  6
 13 15  1  0
 15 16  1  1
 15 17  1  0
 17 18  1  0
 18 19  1  0
 19 20  1  0
 19 21  2  0
 19 22  1  0
 22 23  1  0
 23 24  1  0
 23 25  2  0
 23 26  1  0
 26 27  1  0
 27 28  1  0
 27 29  2  0
 27 30  1  0
 12  1  1  0
 10  3  2  0
M  CHG  4  20  -1  24  -1  28  -1  30  -1
M  END

