
     RDKit          3D

  6  5  0  0  0  0  0  0  0  0999 V2000
    0.7105   -0.7117    0.4407 C   0  0  0  0  0  0  0  0  0  0  0  0
   -0.7177   -0.5107   -0.0230 C   0  0  0  0  0  0  0  0  0  0  0  0
   -1.2172    0.8191    0.1246 N   0  0  0  0  0  4  0  0  0  0  0  0
    1.6351    0.1849   -0.3081 C   0  0  0  0  0  0  0  0  0  0  0  0
    2.7246   -0.3270   -1.0151 O   0  0  0  0  0  1  0  0  0  0  0  0
    1.4601    1.4265   -0.3234 O   0  0  0  0  0  0  0  0  0  0  0  0
  1  2  1  0
  2  3  1  0
  1  4  1  0
  4  5  1  0
  4  6  2  0
M  CHG  2   3   1   5  -1
M  END

