
     RDKit          3D

 11 10  0  0  0  0  0  0  0  0999 V2000
   -2.1109   -1.2675    0.4981 C   0  0  0  0  0  0  0  0  0  0  0  0
   -1.8071   -0.2119   -0.5603 C   0  0  1  0  0  0  0  0  0  0  0  0
   -2.8417    0.7986   -0.5368 N   0  0  0  0  0  4  0  0  0  0  0  0
   -0.5227    0.4196   -0.1874 C   0  0  0  0  0  0  0  0  0  0  0  0
   -0.5194    1.6613    0.0776 O   0  0  0  0  0  0  0  0  0  0  0  0
    0.6962   -0.2740   -0.1088 N   0  0  0  0  0  0  0  0  0  0  0  0
    1.9098    0.4062    0.2613 C   0  0  2  0  0  0  0  0  0  0  0  0
    2.9009    0.3425   -0.8955 C   0  0  0  0  0  0  0  0  0  0  0  0
    2.5227   -0.1560    1.5016 C   0  0  0  0  0  0  0  0  0  0  0  0
    3.6089   -1.0194    1.4593 O   0  0  0  0  0  1  0  0  0  0  0  0
    2.0767    0.1319    2.6420 O   0  0  0  0  0  0  0  0  0  0  0  0
  2  1  1  1
  2  3  1  0
  2  4  1  0
  4  5  2  0
  4  6  1  0
  6  7  1  0
  7  8  1  6
  7  9  1  0
  9 10  1  0
  9 11  2  0
M  CHG  2   3   1  10  -1
M  END

