
     RDKit          3D

  9  8  0  0  0  0  0  0  0  0999 V2000
    1.6856    0.9999    0.4091 C   0  0  0  0  0  0  0  0  0  0  0  0
    0.9449    0.0829   -0.5118 C   0  0  0  0  0  0  0  0  0  0  0  0
    1.5164   -0.3577   -1.4941 O   0  0  0  0  0  0  0  0  0  0  0  0
   -0.4610   -0.3143   -0.2792 C   0  0  2  0  0  0  0  0  0  0  0  0
   -0.4427   -1.1475    1.0133 C   0  0  0  0  0  0  0  0  0  0  0  0
   -0.8639   -1.1576   -1.2891 O   0  0  0  0  0  0  0  0  0  0  0  0
   -1.3530    0.8400   -0.1013 C   0  0  0  0  0  0  0  0  0  0  0  0
   -1.0902    1.6796    0.7898 O   0  0  0  0  0  0  0  0  0  0  0  0
   -2.4792    1.0409   -0.8817 O   0  0  0  0  0  1  0  0  0  0  0  0
  1  2  1  0
  2  3  2  0
  2  4  1  0
  4  5  1  1
  4  6  1  0
  4  7  1  0
  7  8  2  0
  7  9  1  0
M  CHG  1   9  -1
M  END

