
     RDKit          3D

 13 12  0  0  0  0  0  0  0  0999 V2000
    2.3690    0.6195   -0.7308 C   0  0  0  0  0  0  0  0  0  0  0  0
    2.3762    1.4417    0.3547 O   0  0  0  0  0  0  0  0  0  0  0  0
    1.5710   -0.6183   -0.5120 C   0  0  1  0  0  0  0  0  0  0  0  0
    2.0112   -1.3666    0.5850 O   0  0  0  0  0  0  0  0  0  0  0  0
    0.0742   -0.4524   -0.5479 C   0  0  1  0  0  0  0  0  0  0  0  0
   -0.4011   -1.7950   -0.6450 O   0  0  0  0  0  0  0  0  0  0  0  0
   -0.4907    0.2070    0.6542 C   0  0  1  0  0  0  0  0  0  0  0  0
   -0.1029    1.5255    0.7635 O   0  0  0  0  0  0  0  0  0  0  0  0
   -1.9909    0.1446    0.7386 C   0  0  2  0  0  0  0  0  0  0  0  0
   -2.4865   -1.1499    0.6378 O   0  0  0  0  0  0  0  0  0  0  0  0
   -2.6212    0.9512   -0.3383 C   0  0  0  0  0  0  0  0  0  0  0  0
   -2.6366    2.1987   -0.1996 O   0  0  0  0  0  0  0  0  0  0  0  0
   -3.1865    0.4028   -1.4752 O   0  0  0  0  0  1  0  0  0  0  0  0
  1  2  1  0
  1  3  1  0
  3  4  1  1
  3  5  1  0
  5  6  1  1
  5  7  1  0
  7  8  1  6
  7  9  1  0
  9 10  1  6
  9 11  1  0
 11 12  2  0
 11 13  1  0
M  CHG  1  13  -1
M  END

