
     RDKit          3D

 24 26  0  0  0  0  0  0  0  0999 V2000
   -2.0277   -1.1657   -1.5974 C   0  0  0  0  0  0  0  0  0  0  0  0
   -1.9145   -0.9262    0.1087 S   0  0  0  0  0  3  0  0  0  0  0  0
   -3.4691   -1.3918    0.8502 C   0  0  0  0  0  0  0  0  0  0  0  0
   -4.5416   -0.4996    0.2428 C   0  0  0  0  0  0  0  0  0  0  0  0
   -5.9075   -0.8227    0.8146 C   0  0  0  0  0  0  0  0  0  0  0  0
   -5.8880   -0.6155    2.2599 N   0  0  0  0  0  4  0  0  0  0  0  0
   -1.4721    0.6344    0.7008 C   0  0  0  0  0  0  0  0  0  0  0  0
   -0.1832    1.2180    0.3250 C   0  0  1  0  0  0  0  0  0  0  0  0
    0.9417    0.4814    0.7022 O   0  0  0  0  0  0  0  0  0  0  0  0
    1.9256    1.4272    0.3443 C   0  0  1  0  0  0  0  0  0  0  0  0
    3.2516    0.9231    0.4760 N   0  0  0  0  0  0  0  0  0  0  0  0
    3.8690   -0.0057   -0.2387 C   0  0  0  0  0  0  0  0  0  0  0  0
    5.1574   -0.1824    0.2393 C   0  0  0  0  0  0  0  0  0  0  0  0
    5.2770    0.6757    1.2612 N   0  0  0  0  0  0  0  0  0  0  0  0
    4.1391    1.3392    1.4063 C   0  0  0  0  0  0  0  0  0  0  0  0
    6.0421   -1.0885   -0.3099 C   0  0  0  0  0  0  0  0  0  0  0  0
    7.3367   -1.2091    0.2339 N   0  0  0  0  0  0  0  0  0  0  0  0
    5.6028   -1.8193   -1.3572 N   0  0  0  0  0  0  0  0  0  0  0  0
    4.3536   -1.6567   -1.8302 C   0  0  0  0  0  0  0  0  0  0  0  0
    3.4903   -0.7615   -1.2820 N   0  0  0  0  0  0  0  0  0  0  0  0
    1.5725    1.8606   -1.0579 C   0  0  2  0  0  0  0  0  0  0  0  0
    1.7246    3.2466   -1.2270 O   0  0  0  0  0  0  0  0  0  0  0  0
    0.0851    1.4794   -1.1124 C   0  0  2  0  0  0  0  0  0  0  0  0
   -0.6173    2.5968   -1.5200 O   0  0  0  0  0  0  0  0  0  0  0  0
  1  2  1  0
  2  3  1  0
  3  4  1  0
  4  5  1  0
  5  6  1  0
  2  7  1  0
  8  7  1  6
  8  9  1  0
  9 10  1  0
 10 11  1  6
 11 12  1  0
 12 13  2  0
 13 14  1  0
 14 15  2  0
 13 16  1  0
 16 17  1  0
 16 18  2  0
 18 19  1  0
 19 20  2  0
 10 21  1  0
 21 22  1  1
 21 23  1  0
 23 24  1  1
 15 11  1  0
 20 12  1  0
 23  8  1  0
M  CHG  2   2   1   6   1
M  END

