
     RDKit          3D

 57 62  0  0  0  0  0  0  0  0999 V2000
    5.2849   -0.5434    0.4054 C   0  0  0  0  0  0  0  0  0  0  0  0
    4.3957   -1.5430    0.0654 O   0  0  0  0  0  0  0  0  0  0  0  0
    3.2160   -1.7945    1.2329 P   0  0  0  0  0  5  0  0  0  0  0  0
    3.5094   -3.1308    1.9119 O   0  0  0  0  0  0  0  0  0  0  0  0
    3.2984   -0.6121    2.4522 O   0  0  0  0  0  1  0  0  0  0  0  0
    1.6641   -1.9003    0.5829 O   0  0  0  0  0  0  0  0  0  0  0  0
    1.3507   -0.6296   -0.4982 P   0  0  0  0  0  5  0  0  0  0  0  0
    0.4073   -1.1153   -1.5563 O   0  0  0  0  0  0  0  0  0  0  0  0
    2.8015   -0.1865   -1.2446 O   0  0  0  0  0  1  0  0  0  0  0  0
    0.7578    0.7085    0.3444 O   0  0  0  0  0  0  0  0  0  0  0  0
   -0.7814    0.3718    0.9686 P   0  0  0  0  0  5  0  0  0  0  0  0
   -0.7132   -0.9591    1.6621 O   0  0  0  0  0  0  0  0  0  0  0  0
   -1.9576    0.3687   -0.2362 O   0  0  0  0  0  1  0  0  0  0  0  0
   -1.1604    1.6195    2.0613 O   0  0  0  0  0  0  0  0  0  0  0  0
   -1.1802    3.0837    1.2171 P   0  0  0  0  0  5  0  0  0  0  0  0
   -0.7322    4.1834    2.1593 O   0  0  0  0  0  0  0  0  0  0  0  0
   -0.1656    3.0399   -0.1405 O   0  0  0  0  0  1  0  0  0  0  0  0
   -2.7701    3.4056    0.7442 O   0  0  0  0  0  0  0  0  0  0  0  0
   -3.8952    2.6109    1.7229 P   0  0  0  0  0  5  0  0  0  0  0  0
   -3.1979    1.9876    2.8956 O   0  0  0  0  0  0  0  0  0  0  0  0
   -4.9979    3.7473    2.3472 O   0  0  0  0  0  1  0  0  0  0  0  0
   -4.6750    1.4413    0.8051 O   0  0  0  0  0  0  0  0  0  0  0  0
   -5.6122    2.0254   -0.0702 C   0  0  0  0  0  0  0  0  0  0  0  0
   -6.3025    0.9724   -0.8853 C   0  0  1  0  0  0  0  0  0  0  0  0
   -6.9864    0.0541   -0.1522 O   0  0  0  0  0  0  0  0  0  0  0  0
   -8.1705   -0.2516   -0.7726 C   0  0  1  0  0  0  0  0  0  0  0  0
   -9.2483   -0.3713    0.1845 N   0  0  0  0  0  0  0  0  0  0  0  0
  -10.2244   -1.3180    0.1696 C   0  0  0  0  0  0  0  0  0  0  0  0
  -11.0826   -1.1290    1.2304 C   0  0  0  0  0  0  0  0  0  0  0  0
  -10.6190   -0.0615    1.8869 N   0  0  0  0  0  0  0  0  0  0  0  0
   -9.5203    0.3908    1.2589 C   0  0  0  0  0  0  0  0  0  0  0  0
  -12.1706   -1.9871    1.4211 C   0  0  0  0  0  0  0  0  0  0  0  0
  -13.0260   -1.7587    2.5204 N   0  0  0  0  0  0  0  0  0  0  0  0
  -12.3190   -2.9756    0.5311 N   0  0  0  0  0  0  0  0  0  0  0  0
  -11.4902   -3.1589   -0.4941 C   0  0  0  0  0  0  0  0  0  0  0  0
  -10.4464   -2.3312   -0.6725 N   0  0  0  0  0  0  0  0  0  0  0  0
   -8.4447    0.7422   -1.8430 C   0  0  2  0  0  0  0  0  0  0  0  0
   -8.6873    0.1615   -3.0857 O   0  0  0  0  0  0  0  0  0  0  0  0
   -7.2553    1.6365   -1.8397 C   0  0  2  0  0  0  0  0  0  0  0  0
   -6.6951    1.8519   -3.0840 O   0  0  0  0  0  0  0  0  0  0  0  0
    6.2962   -0.4033   -0.7094 C   0  0  1  0  0  0  0  0  0  0  0  0
    7.2305    0.5687   -0.4698 O   0  0  0  0  0  0  0  0  0  0  0  0
    8.3950    0.2568   -1.1192 C   0  0  1  0  0  0  0  0  0  0  0  0
    9.4955    0.3908   -0.2072 N   0  0  0  0  0  0  0  0  0  0  0  0
   10.7670    0.0109   -0.4438 C   0  0  0  0  0  0  0  0  0  0  0  0
   11.5088    0.3039    0.6600 C   0  0  0  0  0  0  0  0  0  0  0  0
   10.6892    0.8662    1.5788 N   0  0  0  0  0  0  0  0  0  0  0  0
    9.4625    0.9118    1.0327 C   0  0  0  0  0  0  0  0  0  0  0  0
   12.8580    0.0027    0.6552 C   0  0  0  0  0  0  0  0  0  0  0  0
   13.6232    0.3125    1.8127 N   0  0  0  0  0  0  0  0  0  0  0  0
   13.3672   -0.5648   -0.4418 N   0  0  0  0  0  0  0  0  0  0  0  0
   12.6120   -0.8472   -1.5274 C   0  0  0  0  0  0  0  0  0  0  0  0
   11.3054   -0.5522   -1.5147 N   0  0  0  0  0  0  0  0  0  0  0  0
    8.2675   -1.1175   -1.7041 C   0  0  2  0  0  0  0  0  0  0  0  0
    7.8176   -1.0098   -3.0060 O   0  0  0  0  0  0  0  0  0  0  0  0
    7.1136   -1.6757   -0.8720 C   0  0  2  0  0  0  0  0  0  0  0  0
    6.4191   -2.6579   -1.5612 O   0  0  0  0  0  0  0  0  0  0  0  0
  1  2  1  0
  2  3  1  0
  3  4  2  0
  3  5  1  0
  3  6  1  0
  6  7  1  0
  7  8  2  0
  7  9  1  0
  7 10  1  0
 10 11  1  0
 11 12  2  0
 11 13  1  0
 11 14  1  0
 14 15  1  0
 15 16  2  0
 15 17  1  0
 15 18  1  0
 18 19  1  0
 19 20  2  0
 19 21  1  0
 19 22  1  0
 22 23  1  0
 24 23  1  1
 24 25  1  0
 25 26  1  0
 26 27  1  1
 27 28  1  0
 28 29  2  0
 29 30  1  0
 30 31  2  0
 29 32  1  0
 32 33  1  0
 32 34  2  0
 34 35  1  0
 35 36  2  0
 26 37  1  0
 37 38  1  6
 37 39  1  0
 39 40  1  6
 41  1  1  1
 41 42  1  0
 42 43  1  0
 43 44  1  1
 44 45  1  0
 45 46  2  0
 46 47  1  0
 47 48  2  0
 46 49  1  0
 49 50  1  0
 49 51  2  0
 51 52  1  0
 52 53  2  0
 43 54  1  0
 54 55  1  6
 54 56  1  0
 56 57  1  6
 31 27  1  0
 36 28  1  0
 39 24  1  0
 48 44  1  0
 53 45  1  0
 56 41  1  0
M  CHG  5   5  -1   9  -1  13  -1  17  -1  21  -1
M  END

