
     RDKit          3D

 10 10  0  0  0  0  0  0  0  0999 V2000
    1.1044   -1.3702    0.2767 C   0  0  0  0  0  0  0  0  0  0  0  0
    1.3896    0.0814    0.4270 C   0  0  1  0  0  0  0  0  0  0  0  0
    2.0722    0.5352   -0.7140 O   0  0  0  0  0  0  0  0  0  0  0  0
    0.1875    0.9427    0.6241 C   0  0  1  0  0  0  0  0  0  0  0  0
    0.5185    2.2317    0.1467 O   0  0  0  0  0  0  0  0  0  0  0  0
   -1.0287    0.4689   -0.1205 C   0  0  2  0  0  0  0  0  0  0  0  0
   -2.1644    1.1022    0.3312 O   0  0  0  0  0  0  0  0  0  0  0  0
   -1.1561   -1.0337    0.0870 C   0  0  0  0  0  0  0  0  0  0  0  0
   -2.2648   -1.5149   -0.6190 O   0  0  0  0  0  0  0  0  0  0  0  0
   -0.0357   -1.6560   -0.4518 O   0  0  0  0  0  0  0  0  0  0  0  0
  1  2  1  0
  2  3  1  6
  2  4  1  0
  4  5  1  6
  4  6  1  0
  6  7  1  1
  6  8  1  0
  8  9  1  0
  8 10  1  0
 10  1  1  0
M  END

