
     RDKit          3D

 10  9  0  0  0  0  0  0  0  0999 V2000
   -2.0220    1.3084   -0.0849 C   0  0  0  0  0  0  0  0  0  0  0  0
   -2.8934    1.8302    0.5770 O   0  0  0  0  0  0  0  0  0  0  0  0
   -1.7395   -0.1155    0.0191 C   0  0  2  0  0  0  0  0  0  0  0  0
   -2.6280   -0.6943    0.9586 O   0  0  0  0  0  0  0  0  0  0  0  0
   -0.3486   -0.4543    0.4708 C   0  0  1  0  0  0  0  0  0  0  0  0
   -0.1909   -1.8610    0.5118 O   0  0  0  0  0  0  0  0  0  0  0  0
    0.7415    0.0566   -0.4012 C   0  0  1  0  0  0  0  0  0  0  0  0
    0.7922    1.4111   -0.5865 O   0  0  0  0  0  0  0  0  0  0  0  0
    2.0643   -0.3458    0.2714 C   0  0  0  0  0  0  0  0  0  0  0  0
    3.1285    0.0041   -0.5589 O   0  0  0  0  0  0  0  0  0  0  0  0
  1  2  2  0
  1  3  1  0
  3  4  1  1
  3  5  1  0
  5  6  1  6
  5  7  1  0
  7  8  1  1
  7  9  1  0
  9 10  1  0
M  END

