
     RDKit          3D

 19 20  0  0  0  0  0  0  0  0999 V2000
    4.3859   -0.7385    1.2459 C   0  0  0  0  0  0  0  0  0  0  0  0
    3.0774   -0.7401    1.6073 C   0  0  0  0  0  0  0  0  0  0  0  0
    2.1019   -0.4203    0.6561 C   0  0  0  0  0  0  0  0  0  0  0  0
    2.5364   -0.1188   -0.6084 C   0  0  0  0  0  0  0  0  0  0  0  0
    3.8748   -0.1234   -0.9544 C   0  0  0  0  0  0  0  0  0  0  0  0
    4.8126   -0.4386   -0.0107 C   0  0  0  0  0  0  0  0  0  0  0  0
    6.1573   -0.4375   -0.3801 O   0  0  0  0  0  0  0  0  0  0  0  0
    0.8128   -0.4412    1.0858 O   0  0  0  0  0  0  0  0  0  0  0  0
   -0.3034   -0.1640    0.3348 C   0  0  2  0  0  0  0  0  0  0  0  0
   -1.0179    0.9642    0.8141 O   0  0  0  0  0  0  0  0  0  0  0  0
   -1.9115    1.2942   -0.1779 C   0  0  2  0  0  0  0  0  0  0  0  0
   -2.5392    2.6521    0.0032 C   0  0  0  0  0  0  0  0  0  0  0  0
   -3.2458    2.7844    1.1755 O   0  0  0  0  0  0  0  0  0  0  0  0
   -3.0061    0.2452   -0.1782 C   0  0  1  0  0  0  0  0  0  0  0  0
   -4.0357    0.6754   -1.0119 O   0  0  0  0  0  0  0  0  0  0  0  0
   -2.3671   -1.0293   -0.6979 C   0  0  2  0  0  0  0  0  0  0  0  0
   -3.2900   -2.0477   -0.7702 O   0  0  0  0  0  0  0  0  0  0  0  0
   -1.2238   -1.3646    0.2520 C   0  0  1  0  0  0  0  0  0  0  0  0
   -0.4898   -2.3815   -0.3736 O   0  0  0  0  0  0  0  0  0  0  0  0
  1  2  2  0
  2  3  1  0
  3  4  2  0
  4  5  1  0
  5  6  2  0
  6  7  1  0
  3  8  1  0
  9  8  1  1
  9 10  1  0
 10 11  1  0
 11 12  1  1
 12 13  1  0
 11 14  1  0
 14 15  1  6
 14 16  1  0
 16 17  1  1
 16 18  1  0
 18 19  1  6
  6  1  1  0
 18  9  1  0
M  END

