
     RDKit          3D

  9  8  0  0  0  0  0  0  0  0999 V2000
    1.5585    0.0388    0.4419 C   0  0  0  0  0  0  0  0  0  0  0  0
    0.4332   -0.2769   -0.4415 C   0  0  0  0  0  0  0  0  0  0  0  0
   -0.8923   -0.2936    0.2899 C   0  0  1  0  0  0  0  0  0  0  0  0
   -1.1374    1.0357    0.8846 C   0  0  0  0  0  0  0  0  0  0  0  0
   -0.4498    2.0315    0.5415 O   0  0  0  0  0  0  0  0  0  0  0  0
   -2.1326    1.2173    1.8362 O   0  0  0  0  0  1  0  0  0  0  0  0
   -1.9336   -0.5879   -0.6981 N   0  0  0  0  0  4  0  0  0  0  0  0
    2.8659    0.0934   -0.0909 N   0  0  0  0  0  0  0  0  0  0  0  0
    1.3557    0.2574    1.6585 O   0  0  0  0  0  0  0  0  0  0  0  0
  1  2  1  0
  2  3  1  0
  3  4  1  0
  4  5  2  0
  4  6  1  0
  3  7  1  6
  1  8  1  0
  1  9  2  0
M  CHG  2   6  -1   7   1
M  END

