
     RDKit          3D

  4  3  0  0  0  0  0  0  0  0999 V2000
   -0.0370   -0.1504   -0.8105 As  0  0  0  0  0  3  0  0  0  0  0  0
    0.0544    1.6098   -0.3528 O   0  0  0  0  0  0  0  0  0  0  0  0
   -1.6681   -0.8133   -0.2842 O   0  0  0  0  0  0  0  0  0  0  0  0
    1.3377   -1.1363   -0.1288 O   0  0  0  0  0  0  0  0  0  0  0  0
  1  2  1  0
  1  3  1  0
  1  4  1  0
M  END

