
     RDKit          3D

  9  8  0  0  0  0  0  0  0  0999 V2000
    1.0124   -0.1832   -0.2340 C   0  0  0  0  0  0  0  0  0  0  0  0
    1.8523    0.8624    0.3302 C   0  0  0  0  0  0  0  0  0  0  0  0
    2.3462    0.7354    1.4685 O   0  0  0  0  0  0  0  0  0  0  0  0
    2.1118    2.0068   -0.3893 O   0  0  0  0  0  1  0  0  0  0  0  0
   -0.4189   -0.1643    0.2561 C   0  0  2  0  0  0  0  0  0  0  0  0
   -1.0981   -1.2782   -0.4162 N   0  0  0  0  0  4  0  0  0  0  0  0
   -1.1168    1.0999    0.0425 C   0  0  0  0  0  0  0  0  0  0  0  0
   -1.9403    1.2200   -0.8944 O   0  0  0  0  0  0  0  0  0  0  0  0
   -0.8873    2.1867    0.8594 O   0  0  0  0  0  1  0  0  0  0  0  0
  1  2  1  0
  2  3  2  0
  2  4  1  0
  1  5  1  0
  5  6  1  6
  5  7  1  0
  7  8  2  0
  7  9  1  0
M  CHG  3   4  -1   6   1   9  -1
M  END

