
     RDKit          3D

  8  7  0  0  0  0  0  0  0  0999 V2000
    1.9837    0.0471    0.2913 C   0  0  0  0  0  0  0  0  0  0  0  0
    2.1290    1.2310    0.0913 O   0  0  0  0  0  0  0  0  0  0  0  0
    0.7725   -0.7390    0.0165 C   0  0  0  0  0  0  0  0  0  0  0  0
   -0.3496    0.0844   -0.5649 C   0  0  2  0  0  0  0  0  0  0  0  0
   -0.6937    1.1226    0.3791 N   0  0  0  0  0  4  0  0  0  0  0  0
   -1.5158   -0.8026   -0.7199 C   0  0  0  0  0  0  0  0  0  0  0  0
   -1.5968   -1.6216   -1.6486 O   0  0  0  0  0  0  0  0  0  0  0  0
   -2.5382   -0.7113    0.1980 O   0  0  0  0  0  1  0  0  0  0  0  0
  1  2  2  0
  1  3  1  0
  3  4  1  0
  4  5  1  1
  4  6  1  0
  6  7  2  0
  6  8  1  0
M  CHG  2   5   1   8  -1
M  END

