
     RDKit          3D

 31 33  0  0  0  0  0  0  0  0999 V2000
    1.2189    0.0215    1.1644 C   0  0  0  0  0  0  0  0  0  0  0  0
    1.2371    1.3216    1.6314 O   0  0  0  0  0  0  0  0  0  0  0  0
    1.9843    2.3013    0.4770 P   0  0  0  0  0  5  0  0  0  0  0  0
    1.2384    3.6374    0.4242 O   0  0  0  0  0  0  0  0  0  0  0  0
    3.6093    2.5775    0.9051 O   0  0  0  0  0  1  0  0  0  0  0  0
    1.8920    1.5123   -1.0136 O   0  0  0  0  0  0  0  0  0  0  0  0
    3.4804    1.2630   -1.5848 P   0  0  0  0  0  5  0  0  0  0  0  0
    3.9604    2.5629   -2.1673 O   0  0  0  0  0  0  0  0  0  0  0  0
    3.4472    0.1197   -2.8040 O   0  0  0  0  0  1  0  0  0  0  0  0
    4.4137    0.8082   -0.2681 O   0  0  0  0  0  0  0  0  0  0  0  0
    6.0456    0.7416   -0.6261 P   0  0  0  0  0  5  0  0  0  0  0  0
    6.3544    1.6817   -1.7525 O   0  0  0  0  0  0  0  0  0  0  0  0
    6.4765   -0.8277   -1.1486 O   0  0  0  0  0  1  0  0  0  0  0  0
    6.9067    1.1256    0.7761 O   0  0  0  0  0  1  0  0  0  0  0  0
    0.5540   -0.9201    2.1657 C   0  0  1  0  0  0  0  0  0  0  0  0
   -0.7398   -0.5475    2.4076 O   0  0  0  0  0  0  0  0  0  0  0  0
   -1.5638   -1.0802    1.4574 C   0  0  1  0  0  0  0  0  0  0  0  0
   -2.2120   -0.0232    0.7106 N   0  0  0  0  0  0  0  0  0  0  0  0
   -3.0518   -0.1595   -0.3394 C   0  0  0  0  0  0  0  0  0  0  0  0
   -3.4601    1.0900   -0.7781 C   0  0  0  0  0  0  0  0  0  0  0  0
   -2.8464    1.9650    0.0315 N   0  0  0  0  0  0  0  0  0  0  0  0
   -2.0978    1.2929    0.9241 C   0  0  0  0  0  0  0  0  0  0  0  0
   -4.3289    1.2312   -1.8486 C   0  0  0  0  0  0  0  0  0  0  0  0
   -4.7372    2.5213   -2.2855 N   0  0  0  0  0  0  0  0  0  0  0  0
   -4.7453    0.0886   -2.4278 N   0  0  0  0  0  0  0  0  0  0  0  0
   -4.3758   -1.1278   -2.0354 C   0  0  0  0  0  0  0  0  0  0  0  0
   -3.5315   -1.2312   -0.9931 N   0  0  0  0  0  0  0  0  0  0  0  0
   -0.7727   -1.9994    0.5873 C   0  0  2  0  0  0  0  0  0  0  0  0
   -1.4247   -3.2214    0.4131 O   0  0  0  0  0  0  0  0  0  0  0  0
    0.4397   -2.2639    1.4561 C   0  0  2  0  0  0  0  0  0  0  0  0
    0.1339   -3.2181    2.4123 O   0  0  0  0  0  0  0  0  0  0  0  0
  1  2  1  0
  2  3  1  0
  3  4  2  0
  3  5  1  0
  3  6  1  0
  6  7  1  0
  7  8  2  0
  7  9  1  0
  7 10  1  0
 10 11  1  0
 11 12  2  0
 11 13  1  0
 11 14  1  0
 15  1  1  6
 15 16  1  0
 16 17  1  0
 17 18  1  6
 18 19  1  0
 19 20  2  0
 20 21  1  0
 21 22  2  0
 20 23  1  0
 23 24  1  0
 23 25  2  0
 25 26  1  0
 26 27  2  0
 17 28  1  0
 28 29  1  1
 28 30  1  0
 30 31  1  1
 22 18  1  0
 27 19  1  0
 30 15  1  0
M  CHG  4   5  -1   9  -1  13  -1  14  -1
M  END

