
     RDKit          3D

  7  6  0  0  0  0  0  0  0  0999 V2000
   -1.1032   -0.4352   -0.9365 C   0  0  0  0  0  0  0  0  0  0  0  0
   -0.2365   -0.0414    0.1486 N   0  0  0  0  0  4  0  0  0  0  0  0
   -0.7665   -0.5276    1.4244 C   0  0  0  0  0  0  0  0  0  0  0  0
    1.0618   -0.6014   -0.0302 C   0  0  0  0  0  0  0  0  0  0  0  0
    1.8660    0.0653   -1.0727 C   0  0  0  0  0  0  0  0  0  0  0  0
    2.9874   -0.3576   -1.2833 O   0  0  0  0  0  0  0  0  0  0  0  0
   -0.2358    1.3973    0.2344 C   0  0  0  0  0  0  0  0  0  0  0  0
  1  2  1  0
  2  3  1  0
  2  4  1  0
  4  5  1  0
  5  6  2  0
  2  7  1  0
M  CHG  1   2   1
M  END

