
     RDKit          3D

  5  4  0  0  0  0  0  0  0  0999 V2000
   -1.4002    0.3913    0.2746 C   0  0  0  0  0  0  0  0  0  0  0  0
   -0.5148   -0.5929   -0.4725 C   0  0  0  0  0  0  0  0  0  0  0  0
    0.8835   -0.6015    0.1305 C   0  0  0  0  0  0  0  0  0  0  0  0
    1.5109    0.7447    0.0495 C   0  0  0  0  0  0  0  0  0  0  0  0
    1.9498    1.0859   -1.0327 O   0  0  0  0  0  0  0  0  0  0  0  0
  1  2  1  0
  2  3  1  0
  3  4  1  0
  4  5  2  0
M  END

