
     RDKit          3D

 53 55  0  0  0  0  0  0  0  0999 V2000
    8.2919   -1.0693    1.4989 C   0  0  0  0  0  0  0  0  0  0  0  0
    7.3623   -1.3553    0.3615 C   0  0  0  0  0  0  0  0  0  0  0  0
    8.0160   -0.8762   -0.9352 C   0  0  0  0  0  0  0  0  0  0  0  0
    7.1089   -1.1446   -2.0688 C   0  0  0  0  0  0  0  0  0  0  0  0
    5.9774   -1.5896   -1.8909 O   0  0  0  0  0  0  0  0  0  0  0  0
    7.5828   -0.8504   -3.7702 S   0  0  0  0  0  0  0  0  0  0  0  0
    9.1486   -0.0266   -3.9544 C   0  0  0  0  0  0  0  0  0  0  0  0
    9.1676    1.4317   -3.8606 C   0  0  0  0  0  0  0  0  0  0  0  0
    8.6130    2.1225   -2.7656 N   0  0  0  0  0  0  0  0  0  0  0  0
    7.2314    2.2022   -2.5155 C   0  0  0  0  0  0  0  0  0  0  0  0
    6.3758    1.6664   -3.2387 O   0  0  0  0  0  0  0  0  0  0  0  0
    6.7610    2.9854   -1.3194 C   0  0  0  0  0  0  0  0  0  0  0  0
    5.3108    3.2824   -1.4232 C   0  0  0  0  0  0  0  0  0  0  0  0
    4.4729    2.1312   -1.4372 N   0  0  0  0  0  0  0  0  0  0  0  0
    4.3841    1.2139   -0.3199 C   0  0  0  0  0  0  0  0  0  0  0  0
    5.0877    1.4932    0.6559 O   0  0  0  0  0  0  0  0  0  0  0  0
    3.4873    0.0431   -0.4087 C   0  0  2  0  0  0  0  0  0  0  0  0
    2.9952   -0.0250   -1.7418 O   0  0  0  0  0  0  0  0  0  0  0  0
    2.2615    0.1477    0.4460 C   0  0  0  0  0  0  0  0  0  0  0  0
    2.6284    0.2583    1.8920 C   0  0  0  0  0  0  0  0  0  0  0  0
    1.4552    1.3877    0.0037 C   0  0  0  0  0  0  0  0  0  0  0  0
    1.4065   -1.0800    0.1840 C   0  0  0  0  0  0  0  0  0  0  0  0
    0.2354   -1.0713    0.9366 O   0  0  0  0  0  0  0  0  0  0  0  0
   -0.6756   -2.4380    0.6158 P   0  0  0  0  0  5  0  0  0  0  0  0
   -2.2126   -2.2142    1.3348 O   0  0  0  0  0  0  0  0  0  0  0  0
   -2.9525   -0.9318    0.5080 P   0  0  0  0  0  5  0  0  0  0  0  0
   -1.9750    0.4428    0.7711 O   0  0  0  0  0  1  0  0  0  0  0  0
   -4.4987   -0.6007    1.0625 O   0  0  0  0  0  0  0  0  0  0  0  0
   -4.4748    0.3614    2.0798 C   0  0  0  0  0  0  0  0  0  0  0  0
   -5.8642    0.6622    2.5760 C   0  0  2  0  0  0  0  0  0  0  0  0
   -6.4817   -0.5996    3.1015 C   0  0  1  0  0  0  0  0  0  0  0  0
   -7.0482   -0.4517    4.3490 O   0  0  0  0  0  0  0  0  0  0  0  0
   -6.5298   -1.7040    5.3473 P   0  0  0  0  0  5  0  0  0  0  0  0
   -6.2035   -1.1369    6.9251 O   0  0  0  0  0  1  0  0  0  0  0  0
   -5.0729   -2.3917    4.7975 O   0  0  0  0  0  1  0  0  0  0  0  0
   -7.6153   -2.7752    5.4738 O   0  0  0  0  0  0  0  0  0  0  0  0
   -7.6317   -0.8035    2.1265 C   0  0  1  0  0  0  0  0  0  0  0  0
   -8.7407   -1.3710    2.7464 O   0  0  0  0  0  0  0  0  0  0  0  0
   -7.8738    0.6109    1.6702 C   0  0  1  0  0  0  0  0  0  0  0  0
   -6.6126    1.1361    1.5292 O   0  0  0  0  0  0  0  0  0  0  0  0
   -8.6674    0.6691    0.4589 N   0  0  0  0  0  0  0  0  0  0  0  0
   -9.1565   -0.3321   -0.3095 C   0  0  0  0  0  0  0  0  0  0  0  0
   -9.8634    0.1934   -1.3793 C   0  0  0  0  0  0  0  0  0  0  0  0
   -9.7984    1.5219   -1.2525 N   0  0  0  0  0  0  0  0  0  0  0  0
   -9.0822    1.8052   -0.1508 C   0  0  0  0  0  0  0  0  0  0  0  0
  -10.4772   -0.6010   -2.3308 C   0  0  0  0  0  0  0  0  0  0  0  0
  -11.2040   -0.1075   -3.4340 N   0  0  0  0  0  0  0  0  0  0  0  0
  -10.3447   -1.9360   -2.1517 N   0  0  0  0  0  0  0  0  0  0  0  0
   -9.6537   -2.4336   -1.1059 C   0  0  0  0  0  0  0  0  0  0  0  0
   -9.0602   -1.6579   -0.1869 N   0  0  0  0  0  0  0  0  0  0  0  0
   -2.9482   -1.3002   -0.9788 O   0  0  0  0  0  0  0  0  0  0  0  0
   -0.8631   -2.6379   -1.0694 O   0  0  0  0  0  1  0  0  0  0  0  0
   -0.0142   -3.6996    1.1438 O   0  0  0  0  0  0  0  0  0  0  0  0
  1  2  1  0
  2  3  1  0
  3  4  1  0
  4  5  2  0
  4  6  1  0
  6  7  1  0
  7  8  1  0
  8  9  1  0
  9 10  1  0
 10 11  2  0
 10 12  1  0
 12 13  1  0
 13 14  1  0
 14 15  1  0
 15 16  2  0
 15 17  1  0
 17 18  1  6
 17 19  1  0
 19 20  1  0
 19 21  1  0
 19 22  1  0
 22 23  1  0
 23 24  1  0
 24 25  1  0
 25 26  1  0
 26 27  1  0
 26 28  1  0
 28 29  1  0
 30 29  1  6
 30 31  1  0
 31 32  1  1
 32 33  1  0
 33 34  1  0
 33 35  1  0
 33 36  2  0
 31 37  1  0
 37 38  1  1
 37 39  1  0
 39 40  1  0
 39 41  1  6
 41 42  1  0
 42 43  2  0
 43 44  1  0
 44 45  2  0
 43 46  1  0
 46 47  1  0
 46 48  2  0
 48 49  1  0
 49 50  2  0
 26 51  2  0
 24 52  1  0
 24 53  2  0
 40 30  1  0
 45 41  1  0
 50 42  1  0
M  CHG  4  27  -1  34  -1  35  -1  52  -1
M  END

