
     RDKit          3D

 22 25  0  0  0  0  0  0  0  0999 V2000
   -2.8040    0.0667    2.0575 C   0  0  0  0  0  0  0  0  0  0  0  0
   -2.1117    0.4102    0.7695 C   0  0  1  0  0  0  0  0  0  0  0  0
   -0.7348    0.3382    0.8467 O   0  0  0  0  0  0  0  0  0  0  0  0
   -0.3975    0.4563   -0.5018 C   0  0  1  0  0  0  0  0  0  0  0  0
    1.0067    0.3738   -0.7359 N   0  0  0  0  0  0  0  0  0  0  0  0
    1.9663    0.0669    0.1482 C   0  0  0  0  0  0  0  0  0  0  0  0
    3.1888    0.1011   -0.4978 C   0  0  0  0  0  0  0  0  0  0  0  0
    2.9543    0.4299   -1.7712 N   0  0  0  0  0  0  0  0  0  0  0  0
    1.6109    0.5941   -1.9024 C   0  0  0  0  0  0  0  0  0  0  0  0
    4.3714   -0.1771    0.1750 C   0  0  0  0  0  0  0  0  0  0  0  0
    5.6020   -0.1314   -0.5222 N   0  0  0  0  0  0  0  0  0  0  0  0
    4.2812   -0.4814    1.4798 N   0  0  0  0  0  0  0  0  0  0  0  0
    3.1107   -0.5241    2.1396 C   0  0  0  0  0  0  0  0  0  0  0  0
    1.9877   -0.2489    1.4549 N   0  0  0  0  0  0  0  0  0  0  0  0
   -1.1860   -0.6674   -1.1158 C   0  0  2  0  0  0  0  0  0  0  0  0
   -1.4987   -0.4322   -2.4540 O   0  0  0  0  0  0  0  0  0  0  0  0
   -2.4230   -0.6958   -0.2418 C   0  0  2  0  0  0  0  0  0  0  0  0
   -3.5614   -0.2917   -0.9119 O   0  0  0  0  0  0  0  0  0  0  0  0
   -4.5623    0.4840    0.2379 P   0  0  0  0  0  5  0  0  0  0  0  0
   -4.5624    2.1545    0.0129 O   0  0  0  0  0  1  0  0  0  0  0  0
   -5.9812    0.0023   -0.0436 O   0  0  0  0  0  0  0  0  0  0  0  0
   -4.1753    0.0379    1.7969 O   0  0  0  0  0  0  0  0  0  0  0  0
  2  1  1  1
  2  3  1  0
  3  4  1  0
  4  5  1  1
  5  6  1  0
  6  7  2  0
  7  8  1  0
  8  9  2  0
  7 10  1  0
 10 11  1  0
 10 12  2  0
 12 13  1  0
 13 14  2  0
  4 15  1  0
 15 16  1  6
 15 17  1  0
 17 18  1  6
 18 19  1  0
 19 20  1  0
 19 21  2  0
 19 22  1  0
  9  5  1  0
 14  6  1  0
 22  1  1  0
 17  2  1  0
M  CHG  1  20  -1
M  END

