
     RDKit          3D

 25 26  0  0  0  0  0  0  0  0999 V2000
    2.2389   -0.2982   -0.8438 C   0  0  0  0  0  0  0  0  0  0  0  0
    2.5444    1.0372   -0.8719 O   0  0  0  0  0  0  0  0  0  0  0  0
    4.2464    1.1638   -0.7510 P   0  0  0  0  0  5  0  0  0  0  0  0
    4.9271   -0.3380   -0.3418 O   0  0  0  0  0  0  0  0  0  0  0  0
    5.8670   -0.2542    1.0412 P   0  0  0  0  0  5  0  0  0  0  0  0
    7.3643   -0.9944    0.6859 O   0  0  0  0  0  1  0  0  0  0  0  0
    5.1219   -1.1635    2.2580 O   0  0  0  0  0  1  0  0  0  0  0  0
    6.0467    1.1418    1.5551 O   0  0  0  0  0  0  0  0  0  0  0  0
    4.5768    2.2235    0.2695 O   0  0  0  0  0  0  0  0  0  0  0  0
    4.8451    1.5710   -2.2803 O   0  0  0  0  0  1  0  0  0  0  0  0
    0.7818   -0.6131   -0.9395 C   0  0  2  0  0  0  0  0  0  0  0  0
    0.1199   -0.1018   -2.1726 C   0  0  2  0  0  0  0  0  0  0  0  0
   -1.3435    0.0065   -1.7155 C   0  0  2  0  0  0  0  0  0  0  0  0
   -1.2548   -0.5364   -0.3294 C   0  0  2  0  0  0  0  0  0  0  0  0
   -2.2957   -0.1606    0.5516 N   0  0  0  0  0  0  0  0  0  0  0  0
   -2.5438    1.1068    0.8772 C   0  0  0  0  0  0  0  0  0  0  0  0
   -3.5389    1.4583    1.7187 N   0  0  0  0  0  0  0  0  0  0  0  0
   -4.3367    0.5269    2.2742 C   0  0  0  0  0  0  0  0  0  0  0  0
   -4.1163   -0.8184    1.9634 C   0  0  0  0  0  0  0  0  0  0  0  0
   -3.0812   -1.1169    1.0948 C   0  0  0  0  0  0  0  0  0  0  0  0
   -5.3765    0.8831    3.1523 N   0  0  0  0  0  0  0  0  0  0  0  0
   -1.7845    1.9836    0.3476 O   0  0  0  0  0  0  0  0  0  0  0  0
    0.0181   -0.0768    0.0775 O   0  0  0  0  0  0  0  0  0  0  0  0
   -2.1638   -0.8179   -2.4908 O   0  0  0  0  0  0  0  0  0  0  0  0
    0.1748   -1.0992   -3.1508 O   0  0  0  0  0  0  0  0  0  0  0  0
  1  2  1  0
  2  3  1  0
  3  4  1  0
  4  5  1  0
  5  6  1  0
  5  7  1  0
  5  8  2  0
  3  9  2  0
  3 10  1  0
 11  1  1  1
 11 12  1  0
 12 13  1  0
 13 14  1  0
 14 15  1  1
 15 16  1  0
 16 17  1  0
 17 18  2  0
 18 19  1  0
 19 20  2  0
 18 21  1  0
 16 22  2  0
 14 23  1  0
 13 24  1  6
 12 25  1  6
 20 15  1  0
 23 11  1  0
M  CHG  3   6  -1   7  -1  10  -1
M  END

