
     RDKit          3D

 13 13  0  0  0  0  0  0  0  0999 V2000
    3.6284   -1.1227    0.5458 C   0  0  0  0  0  0  0  0  0  0  0  0
    2.3669   -1.0127   -0.2287 C   0  0  0  0  0  0  0  0  0  0  0  0
    1.4314   -0.1760    0.5824 C   0  0  0  0  0  0  0  0  0  0  0  0
    0.0921    0.0276   -0.0913 C   0  0  0  0  0  0  0  0  0  0  0  0
   -0.8786    0.7984    0.6450 C   0  0  2  0  0  0  0  0  0  0  0  0
   -1.2194    0.0422    1.8233 O   0  0  0  0  0  0  0  0  0  0  0  0
   -2.1519    1.0298   -0.0487 C   0  0  2  0  0  0  0  0  0  0  0  0
   -3.2694    0.8361    0.8044 O   0  0  0  0  0  0  0  0  0  0  0  0
   -2.3375    0.4035   -1.3293 C   0  0  0  0  0  0  0  0  0  0  0  0
   -1.4323   -0.3215   -1.9379 C   0  0  0  0  0  0  0  0  0  0  0  0
   -0.1500   -0.4980   -1.2500 C   0  0  0  0  0  0  0  0  0  0  0  0
    4.4549   -0.1611    0.5865 O   0  0  0  0  0  0  0  0  0  0  0  0
    3.9526   -2.2706    1.2506 O   0  0  0  0  0  1  0  0  0  0  0  0
  1  2  1  0
  2  3  1  0
  3  4  1  0
  4  5  1  0
  5  6  1  1
  5  7  1  0
  7  8  1  1
  7  9  1  0
  9 10  2  0
 10 11  1  0
  1 12  2  0
  1 13  1  0
 11  4  2  0
M  CHG  1  13  -1
M  END

