
     RDKit          3D

 23 24  0  0  0  0  0  0  0  0999 V2000
   -2.9227    0.3171    2.7120 C   0  0  0  0  0  0  0  0  0  0  0  0
   -2.7058    0.5734    1.2358 C   0  0  2  0  0  0  0  0  0  0  0  0
   -2.7626   -0.8060    0.5724 C   0  0  2  0  0  0  0  0  0  0  0  0
   -2.9303   -0.4878   -0.9021 C   0  0  1  0  0  0  0  0  0  0  0  0
   -1.8834    0.5234   -1.2944 C   0  0  2  0  0  0  0  0  0  0  0  0
   -0.9321    0.8865   -0.2316 C   0  0  2  0  0  0  0  0  0  0  0  0
   -0.0075   -0.1018   -0.0065 O   0  0  0  0  0  0  0  0  0  0  0  0
    1.2849    0.1867   -0.1129 C   0  0  2  0  0  0  0  0  0  0  0  0
    1.9915   -0.6830   -1.1123 C   0  0  2  0  0  0  0  0  0  0  0  0
    3.0468    0.0917   -1.5964 O   0  0  0  0  0  0  0  0  0  0  0  0
    3.9687    0.3815   -0.6174 C   0  0  2  0  0  0  0  0  0  0  0  0
    3.4868    0.7224    0.7217 C   0  0  1  0  0  0  0  0  0  0  0  0
    2.1368    0.1120    1.1207 C   0  0  1  0  0  0  0  0  0  0  0  0
    1.6996    0.8695    2.1730 O   0  0  0  0  0  0  0  0  0  0  0  0
    4.3942    0.2835    1.6889 O   0  0  0  0  0  0  0  0  0  0  0  0
    4.7334    1.4734   -1.0944 O   0  0  0  0  0  0  0  0  0  0  0  0
    1.1568   -1.2897   -2.1687 C   0  0  0  0  0  0  0  0  0  0  0  0
    0.1479   -2.0437   -1.5565 O   0  0  0  0  0  0  0  0  0  0  0  0
   -1.5086    1.1701    1.0015 O   0  0  0  0  0  0  0  0  0  0  0  0
   -2.5810    1.7109   -1.6427 O   0  0  0  0  0  0  0  0  0  0  0  0
   -2.9137   -1.6327   -1.6974 O   0  0  0  0  0  0  0  0  0  0  0  0
   -3.9025   -1.5020    0.9656 O   0  0  0  0  0  0  0  0  0  0  0  0
   -1.8734   -0.5273    3.1244 O   0  0  0  0  0  0  0  0  0  0  0  0
  2  1  1  1
  2  3  1  0
  3  4  1  0
  4  5  1  0
  5  6  1  0
  6  7  1  1
  8  7  1  1
  8  9  1  0
  9 10  1  0
 10 11  1  0
 11 12  1  0
 12 13  1  0
 13 14  1  1
 12 15  1  1
 11 16  1  6
  9 17  1  6
 17 18  1  0
  6 19  1  0
  5 20  1  1
  4 21  1  6
  3 22  1  1
  1 23  1  0
 13  8  1  0
 19  2  1  0
M  END

