
     RDKit          3D

 11 11  0  0  0  0  0  0  0  0999 V2000
    3.6143    0.4531   -0.4155 C   0  0  0  0  0  0  0  0  0  0  0  0
    4.0716   -0.6638   -0.7570 O   0  0  0  0  0  0  0  0  0  0  0  0
    4.5051    1.5070   -0.2861 O   0  0  0  0  0  1  0  0  0  0  0  0
    2.1714    0.6485   -0.1571 C   0  0  0  0  0  0  0  0  0  0  0  0
    1.3021   -0.3212   -0.2689 C   0  0  0  0  0  0  0  0  0  0  0  0
   -0.1306   -0.2267   -0.0367 C   0  0  0  0  0  0  0  0  0  0  0  0
   -0.7572    0.9367    0.3409 C   0  0  0  0  0  0  0  0  0  0  0  0
   -2.1406    0.9831    0.5540 C   0  0  0  0  0  0  0  0  0  0  0  0
   -2.8840   -0.1487    0.3839 C   0  0  0  0  0  0  0  0  0  0  0  0
   -2.2889   -1.3474    0.0022 C   0  0  0  0  0  0  0  0  0  0  0  0
   -0.9491   -1.3413   -0.1916 C   0  0  0  0  0  0  0  0  0  0  0  0
  1  2  2  0
  1  3  1  0
  1  4  1  0
  4  5  2  0
  5  6  1  0
  6  7  2  0
  7  8  1  0
  8  9  2  0
  9 10  1  0
 10 11  2  0
 11  6  1  0
M  CHG  1   3  -1
M  END

