
     RDKit          3D

 36 38  0  0  0  0  0  0  0  0999 V2000
   -5.7177    2.5542   -0.6003 C   0  0  0  0  0  0  0  0  0  0  0  0
   -6.7637    3.2807   -0.0462 O   0  0  0  0  0  0  0  0  0  0  0  0
   -5.7817    1.0926   -0.1572 C   0  0  1  0  0  0  0  0  0  0  0  0
   -6.9723    0.5249   -0.5620 O   0  0  0  0  0  0  0  0  0  0  0  0
   -4.6107    0.3860   -0.8144 C   0  0  1  0  0  0  0  0  0  0  0  0
   -3.4038    0.8946   -0.4599 O   0  0  0  0  0  0  0  0  0  0  0  0
   -2.7716    0.3612    0.6050 C   0  0  1  0  0  0  0  0  0  0  0  0
   -1.6645   -0.3794    0.1313 O   0  0  0  0  0  0  0  0  0  0  0  0
   -0.5979    0.6143   -0.7185 P   0  0  0  0  0  5  0  0  0  0  0  0
    0.7487   -0.2903   -1.1476 O   0  0  0  0  0  0  0  0  0  0  0  0
    1.4332   -0.7844   -0.0510 C   0  0  0  0  0  0  0  0  0  0  0  0
    2.6087   -1.5708   -0.5527 C   0  0  2  0  0  0  0  0  0  0  0  0
    3.4430   -2.1246    0.6040 C   0  0  2  0  0  0  0  0  0  0  0  0
    4.7841   -2.2677   -0.0861 C   0  0  2  0  0  0  0  0  0  0  0  0
    4.7426   -1.1591   -1.0834 C   0  0  2  0  0  0  0  0  0  0  0  0
    5.5115   -0.0473   -0.5437 N   0  0  0  0  0  0  0  0  0  0  0  0
    4.9612    1.1360   -0.2214 C   0  0  0  0  0  0  0  0  0  0  0  0
    5.7198    2.1753    0.2905 C   0  0  0  0  0  0  0  0  0  0  0  0
    7.0826    2.0118    0.4831 C   0  0  0  0  0  0  0  0  0  0  0  0
    7.8609    3.0649    1.0035 N   0  0  0  0  0  0  0  0  0  0  0  0
    7.5987    0.8088    0.1474 N   0  0  0  0  0  0  0  0  0  0  0  0
    6.8356   -0.1732   -0.3448 C   0  0  0  0  0  0  0  0  0  0  0  0
    7.3544   -1.2894   -0.6488 O   0  0  0  0  0  0  0  0  0  0  0  0
    3.4474   -0.7855   -1.2948 O   0  0  0  0  0  0  0  0  0  0  0  0
    4.7856   -3.4852   -0.7956 O   0  0  0  0  0  0  0  0  0  0  0  0
    2.9906   -3.3490    1.0239 O   0  0  0  0  0  0  0  0  0  0  0  0
   -1.2703    1.1010   -1.9777 O   0  0  0  0  0  0  0  0  0  0  0  0
   -0.0688    1.9224    0.2097 O   0  0  0  0  0  1  0  0  0  0  0  0
   -2.2452    1.4624    1.4559 C   0  0  0  0  0  0  0  0  0  0  0  0
   -1.5418    1.2244    2.6321 O   0  0  0  0  0  1  0  0  0  0  0  0
   -2.4174    2.6687    1.1419 O   0  0  0  0  0  0  0  0  0  0  0  0
   -3.5641   -0.5531    1.4768 C   0  0  0  0  0  0  0  0  0  0  0  0
   -4.4799   -1.4779    0.7457 C   0  0  2  0  0  0  0  0  0  0  0  0
   -4.7183   -1.1182   -0.6805 C   0  0  1  0  0  0  0  0  0  0  0  0
   -5.9959   -1.5012   -1.0657 O   0  0  0  0  0  0  0  0  0  0  0  0
   -5.7154   -1.5101    1.3993 O   0  0  0  0  0  0  0  0  0  0  0  0
  1  2  1  0
  1  3  1  0
  3  4  1  6
  3  5  1  0
  5  6  1  1
  6  7  1  0
  7  8  1  6
  8  9  1  0
  9 10  1  0
 10 11  1  0
 12 11  1  1
 12 13  1  0
 13 14  1  0
 14 15  1  0
 15 16  1  1
 16 17  1  0
 17 18  2  0
 18 19  1  0
 19 20  1  0
 19 21  2  0
 21 22  1  0
 22 23  2  0
 15 24  1  0
 14 25  1  6
 13 26  1  6
  9 27  2  0
  9 28  1  0
  7 29  1  0
 29 30  1  0
 29 31  2  0
  7 32  1  0
 32 33  1  0
 33 34  1  0
 34 35  1  1
 33 36  1  1
 22 16  1  0
 24 12  1  0
 34  5  1  0
M  CHG  2  28  -1  30  -1
M  END

