
     RDKit          3D

 20 20  0  0  0  0  0  0  0  0999 V2000
   -2.1945    2.4413   -0.5633 C   0  0  0  0  0  0  0  0  0  0  0  0
   -2.2369    2.4560   -1.9609 O   0  0  0  0  0  0  0  0  0  0  0  0
   -1.3305    1.3053   -0.0530 C   0  0  1  0  0  0  0  0  0  0  0  0
   -1.8033    0.0231   -0.4663 N   0  0  0  0  0  0  0  0  0  0  0  0
   -2.1913   -1.0061    0.4432 C   0  0  0  0  0  0  0  0  0  0  0  0
   -2.1192   -0.7917    1.6825 O   0  0  0  0  0  0  0  0  0  0  0  0
   -2.6790   -2.3249    0.0011 C   0  0  0  0  0  0  0  0  0  0  0  0
   -3.0632   -3.3346    1.3823 Cl  0  0  0  0  0  0  0  0  0  0  0  0
   -1.5943   -3.1235   -1.1498 Cl  0  0  0  0  0  0  0  0  0  0  0  0
    0.0681    1.5573   -0.5779 C   0  0  1  0  0  0  0  0  0  0  0  0
    1.0423    0.5860   -0.0707 C   0  0  0  0  0  0  0  0  0  0  0  0
    1.8909    0.9637    0.9508 C   0  0  0  0  0  0  0  0  0  0  0  0
    2.8181    0.0821    1.4520 C   0  0  0  0  0  0  0  0  0  0  0  0
    2.9368   -1.1993    0.9609 C   0  0  0  0  0  0  0  0  0  0  0  0
    3.9050   -2.0740    1.5061 N   0  0  0  0  0  4  0  0  0  0  0  0
    4.6429   -1.6875    2.4219 O   0  0  0  0  0  0  0  0  0  0  0  0
    4.0468   -3.3501    1.0406 O   0  0  0  0  0  1  0  0  0  0  0  0
    2.0847   -1.5676   -0.0595 C   0  0  0  0  0  0  0  0  0  0  0  0
    1.1517   -0.6958   -0.5711 C   0  0  0  0  0  0  0  0  0  0  0  0
    0.0649    1.5104   -1.9909 O   0  0  0  0  0  0  0  0  0  0  0  0
  1  2  1  0
  3  1  1  6
  3  4  1  0
  4  5  1  0
  5  6  2  0
  5  7  1  0
  7  8  1  0
  7  9  1  0
  3 10  1  0
 10 11  1  0
 11 12  2  0
 12 13  1  0
 13 14  2  0
 14 15  1  0
 15 16  2  0
 15 17  1  0
 14 18  1  0
 18 19  2  0
 10 20  1  6
 19 11  1  0
M  CHG  2  15   1  17  -1
M  END

