
     RDKit          3D

 49 50  0  0  0  0  0  0  0  0999 V2000
   11.5886   -5.9478    0.3480 C   0  0  0  0  0  0  0  0  0  0  0  0
   11.6209   -4.5554    0.9781 C   0  0  0  0  0  0  0  0  0  0  0  0
   11.7932   -3.5043   -0.1174 C   0  0  0  0  0  0  0  0  0  0  0  0
   10.6536   -3.5283   -1.0936 C   0  0  0  0  0  0  0  0  0  0  0  0
    9.3114   -3.2131   -0.4536 C   0  0  0  0  0  0  0  0  0  0  0  0
    9.3702   -1.8008    0.1343 C   0  0  0  0  0  0  0  0  0  0  0  0
    9.6747   -0.8370   -0.9744 C   0  0  0  0  0  0  0  0  0  0  0  0
    8.6443   -0.8388   -2.0820 C   0  0  0  0  0  0  0  0  0  0  0  0
    8.8777    0.3591   -1.2344 C   0  0  0  0  0  0  0  0  0  0  0  0
    7.7507    0.8153   -0.3474 C   0  0  0  0  0  0  0  0  0  0  0  0
    7.1631    2.0430   -0.9673 C   0  0  0  0  0  0  0  0  0  0  0  0
    6.0480    2.6051   -0.1689 C   0  0  0  0  0  0  0  0  0  0  0  0
    4.9003    1.7177    0.1273 C   0  0  0  0  0  0  0  0  0  0  0  0
    4.1964    1.0909   -1.0055 C   0  0  0  0  0  0  0  0  0  0  0  0
    3.5836    1.9187   -2.0415 C   0  0  0  0  0  0  0  0  0  0  0  0
    2.5312    2.8896   -1.7410 C   0  0  0  0  0  0  0  0  0  0  0  0
    1.2821    2.3997   -1.1251 C   0  0  0  0  0  0  0  0  0  0  0  0
    0.0739    2.9785   -1.2975 O   0  0  0  0  0  0  0  0  0  0  0  0
   -1.1895    2.7795   -0.8539 C   0  0  0  0  0  0  0  0  0  0  0  0
   -1.5637    3.2042    0.5227 C   0  0  2  0  0  0  0  0  0  0  0  0
   -0.6580    2.9054    1.6635 C   0  0  0  0  0  0  0  0  0  0  0  0
    0.6148    3.4277    1.4971 O   0  0  0  0  0  0  0  0  0  0  0  0
    1.5040    3.0873    2.8951 P   0  0  0  0  0  5  0  0  0  0  0  0
    2.5610    4.3448    3.2734 O   0  0  0  0  0  0  0  0  0  0  0  0
    2.4856    5.3775    2.3436 C   0  0  0  0  0  0  0  0  0  0  0  0
    3.3934    6.5323    2.6297 C   0  0  0  0  0  0  0  0  0  0  0  0
    3.1994    7.5263    1.5596 N   0  0  0  0  0  4  0  0  0  0  0  0
    0.4249    2.7905    4.1718 O   0  0  0  0  0  1  0  0  0  0  0  0
    2.2973    1.8369    2.6641 O   0  0  0  0  0  0  0  0  0  0  0  0
   -2.9083    2.7701    0.8100 O   0  0  0  0  0  0  0  0  0  0  0  0
   -3.9302    3.6189    1.1076 C   0  0  0  0  0  0  0  0  0  0  0  0
   -3.5884    4.8761    1.1124 O   0  0  0  0  0  0  0  0  0  0  0  0
   -5.3185    3.2658    1.4131 C   0  0  0  0  0  0  0  0  0  0  0  0
   -5.6389    1.7791    1.2921 C   0  0  0  0  0  0  0  0  0  0  0  0
   -4.8320    0.9406    2.1910 C   0  0  0  0  0  0  0  0  0  0  0  0
   -5.1469   -0.5022    2.2232 C   0  0  0  0  0  0  0  0  0  0  0  0
   -5.0941   -1.3504    1.0342 C   0  0  0  0  0  0  0  0  0  0  0  0
   -6.0484   -1.1683   -0.0741 C   0  0  0  0  0  0  0  0  0  0  0  0
   -7.5013   -1.3373    0.3842 C   0  0  0  0  0  0  0  0  0  0  0  0
   -7.7188   -2.7115    0.9377 C   0  0  0  0  0  0  0  0  0  0  0  0
   -9.1128   -3.0161    1.4313 C   0  0  0  0  0  0  0  0  0  0  0  0
   -8.4969   -3.7323    0.2392 C   0  0  0  0  0  0  0  0  0  0  0  0
   -9.2666   -3.4569   -1.0470 C   0  0  0  0  0  0  0  0  0  0  0  0
   -9.9471   -4.7203   -1.5211 C   0  0  0  0  0  0  0  0  0  0  0  0
  -10.7357   -4.5438   -2.7706 C   0  0  0  0  0  0  0  0  0  0  0  0
  -11.8370   -3.5407   -2.5733 C   0  0  0  0  0  0  0  0  0  0  0  0
  -12.6489   -3.3610   -3.8566 C   0  0  0  0  0  0  0  0  0  0  0  0
  -13.7213   -2.3399   -3.5235 C   0  0  0  0  0  0  0  0  0  0  0  0
    1.3313    1.3769   -0.3961 O   0  0  0  0  0  0  0  0  0  0  0  0
  1  2  1  0
  2  3  1  0
  3  4  1  0
  4  5  1  0
  5  6  1  0
  6  7  1  0
  7  8  1  0
  8  9  1  0
  9 10  1  0
 10 11  1  0
 11 12  1  0
 12 13  1  0
 13 14  1  0
 14 15  1  0
 15 16  1  0
 16 17  1  0
 17 18  1  0
 18 19  1  0
 20 19  1  6
 20 21  1  0
 21 22  1  0
 22 23  1  0
 23 24  1  0
 24 25  1  0
 25 26  1  0
 26 27  1  0
 23 28  1  0
 23 29  2  0
 20 30  1  0
 30 31  1  0
 31 32  2  0
 31 33  1  0
 33 34  1  0
 34 35  1  0
 35 36  1  0
 36 37  1  0
 37 38  1  0
 38 39  1  0
 39 40  1  0
 40 41  1  0
 41 42  1  0
 42 43  1  0
 43 44  1  0
 44 45  1  0
 45 46  1  0
 46 47  1  0
 47 48  1  0
 17 49  2  0
  9  7  1  0
 42 40  1  0
M  CHG  2  27   1  28  -1
M  END

