
     RDKit          3D

 55 56  0  0  0  0  0  0  0  0999 V2000
   12.0418    6.1998    4.1113 C   0  0  0  0  0  0  0  0  0  0  0  0
   11.7983    4.8251    3.5326 C   0  0  0  0  0  0  0  0  0  0  0  0
   12.6420    4.5498    2.3146 C   0  0  0  0  0  0  0  0  0  0  0  0
   12.4088    3.1765    1.7535 C   0  0  0  0  0  0  0  0  0  0  0  0
   10.9694    2.9596    1.3390 C   0  0  0  0  0  0  0  0  0  0  0  0
   10.7729    1.5590    0.7831 C   0  0  0  0  0  0  0  0  0  0  0  0
    9.3308    1.3563    0.3994 C   0  0  0  0  0  0  0  0  0  0  0  0
    8.9480   -0.0075   -0.1676 C   0  0  0  0  0  0  0  0  0  0  0  0
    8.9062    1.2432   -1.0372 C   0  0  0  0  0  0  0  0  0  0  0  0
    9.9384    1.3174   -2.1010 C   0  0  0  0  0  0  0  0  0  0  0  0
    9.4664    1.1617   -3.4761 C   0  0  0  0  0  0  0  0  0  0  0  0
    8.5404    2.1095   -4.0838 C   0  0  0  0  0  0  0  0  0  0  0  0
    7.1726    2.3243   -3.5972 C   0  0  0  0  0  0  0  0  0  0  0  0
    6.3390    1.0580   -3.5569 C   0  0  0  0  0  0  0  0  0  0  0  0
    4.9515    1.3911   -3.0832 C   0  0  0  0  0  0  0  0  0  0  0  0
    4.0607    0.1727   -2.9932 C   0  0  0  0  0  0  0  0  0  0  0  0
    4.6060   -0.7698   -1.9637 C   0  0  0  0  0  0  0  0  0  0  0  0
    3.7657   -1.9958   -1.8996 C   0  0  0  0  0  0  0  0  0  0  0  0
    2.3494   -1.6623   -1.5459 C   0  0  0  0  0  0  0  0  0  0  0  0
    2.1337   -1.1875   -0.4237 O   0  0  0  0  0  0  0  0  0  0  0  0
    1.3279   -1.8767   -2.4194 O   0  0  0  0  0  0  0  0  0  0  0  0
   -0.0238   -1.6398   -2.1900 C   0  0  0  0  0  0  0  0  0  0  0  0
   -0.4401   -2.5716   -1.0469 C   0  0  2  0  0  0  0  0  0  0  0  0
    0.1603   -3.9190   -1.2787 C   0  0  0  0  0  0  0  0  0  0  0  0
    0.0362   -4.7848   -0.1886 O   0  0  0  0  0  0  0  0  0  0  0  0
    0.7540   -6.2751   -0.5380 P   0  0  0  0  0  5  0  0  0  0  0  0
    2.4017   -6.0190   -0.9050 O   0  0  0  0  0  1  0  0  0  0  0  0
    0.0979   -6.7619   -1.8334 O   0  0  0  0  0  0  0  0  0  0  0  0
    0.5445   -7.4267    0.6542 O   0  0  0  0  0  0  0  0  0  0  0  0
    1.6735   -8.2405    0.7776 C   0  0  0  0  0  0  0  0  0  0  0  0
    1.5525   -9.2948    1.8274 C   0  0  1  0  0  0  0  0  0  0  0  0
    1.3362   -8.7387    3.0667 O   0  0  0  0  0  0  0  0  0  0  0  0
    0.5453  -10.3730    1.4895 C   0  0  0  0  0  0  0  0  0  0  0  0
    0.6670  -11.3775    2.4601 O   0  0  0  0  0  0  0  0  0  0  0  0
   -1.7883   -2.5762   -0.7700 O   0  0  0  0  0  0  0  0  0  0  0  0
   -2.3600   -2.0737    0.3601 C   0  0  0  0  0  0  0  0  0  0  0  0
   -3.8609   -2.1867    0.5317 C   0  0  0  0  0  0  0  0  0  0  0  0
   -4.5201   -0.9304    0.1167 C   0  0  0  0  0  0  0  0  0  0  0  0
   -6.0487   -1.0003    0.2493 C   0  0  0  0  0  0  0  0  0  0  0  0
   -6.5697   -2.0503   -0.6430 C   0  0  0  0  0  0  0  0  0  0  0  0
   -8.0100   -2.3384   -0.7028 C   0  0  0  0  0  0  0  0  0  0  0  0
   -8.7313   -2.8543    0.4612 C   0  0  0  0  0  0  0  0  0  0  0  0
   -8.8464   -2.0714    1.7039 C   0  0  0  0  0  0  0  0  0  0  0  0
   -9.5315   -0.7313    1.5061 C   0  0  0  0  0  0  0  0  0  0  0  0
   -9.5943   -0.0387    2.8504 C   0  0  0  0  0  0  0  0  0  0  0  0
  -10.2897    1.3024    2.7480 C   0  0  0  0  0  0  0  0  0  0  0  0
  -11.6992    1.2520    2.2466 C   0  0  0  0  0  0  0  0  0  0  0  0
  -10.5724    1.9410    1.4642 C   0  0  0  0  0  0  0  0  0  0  0  0
  -10.7233    3.4666    1.3672 C   0  0  0  0  0  0  0  0  0  0  0  0
  -10.9971    3.8253   -0.0808 C   0  0  0  0  0  0  0  0  0  0  0  0
  -11.1895    5.2921   -0.2910 C   0  0  0  0  0  0  0  0  0  0  0  0
  -10.0196    6.1482    0.0921 C   0  0  0  0  0  0  0  0  0  0  0  0
  -10.4334    7.5993   -0.1932 C   0  0  0  0  0  0  0  0  0  0  0  0
  -11.6480    7.8846    0.6475 C   0  0  0  0  0  0  0  0  0  0  0  0
   -1.6606   -1.5317    1.2482 O   0  0  0  0  0  0  0  0  0  0  0  0
  1  2  1  0
  2  3  1  0
  3  4  1  0
  4  5  1  0
  5  6  1  0
  6  7  1  0
  7  8  1  0
  8  9  1  0
  9 10  1  0
 10 11  1  0
 11 12  1  0
 12 13  1  0
 13 14  1  0
 14 15  1  0
 15 16  1  0
 16 17  1  0
 17 18  1  0
 18 19  1  0
 19 20  2  0
 19 21  1  0
 21 22  1  0
 23 22  1  6
 23 24  1  0
 24 25  1  0
 25 26  1  0
 26 27  1  0
 26 28  2  0
 26 29  1  0
 29 30  1  0
 30 31  1  0
 31 32  1  1
 31 33  1  0
 33 34  1  0
 23 35  1  0
 35 36  1  0
 36 37  1  0
 37 38  1  0
 38 39  1  0
 39 40  1  0
 40 41  1  0
 41 42  1  0
 42 43  1  0
 43 44  1  0
 44 45  1  0
 45 46  1  0
 46 47  1  0
 47 48  1  0
 48 49  1  0
 49 50  1  0
 50 51  1  0
 51 52  1  0
 52 53  1  0
 53 54  1  0
 36 55  2  0
  9  7  1  0
 48 46  1  0
M  CHG  1  27  -1
M  END

