
     RDKit          3D

 54 54  0  0  0  0  0  0  0  0999 V2000
   13.9574    1.7354   -0.6637 C   0  0  0  0  0  0  0  0  0  0  0  0
   12.9295    0.7938   -1.3829 C   0  0  0  0  0  0  0  0  0  0  0  0
   13.5053   -0.4140   -1.8372 C   0  0  0  0  0  0  0  0  0  0  0  0
   12.8512   -1.5097   -2.5410 C   0  0  0  0  0  0  0  0  0  0  0  0
   13.9338   -2.4935   -2.7597 O   0  0  0  0  0  0  0  0  0  0  0  0
   11.7406    1.2645   -1.4412 C   0  0  0  0  0  0  0  0  0  0  0  0
   10.5899    0.6732   -2.0134 C   0  0  0  0  0  0  0  0  0  0  0  0
   10.4261   -0.4004   -2.5557 O   0  0  0  0  0  0  0  0  0  0  0  0
    9.3785    1.4760   -1.9565 N   0  0  0  0  0  0  0  0  0  0  0  0
    9.4441    2.6987   -1.4141 O   0  0  0  0  0  0  0  0  0  0  0  0
    8.1103    0.9965   -2.4430 C   0  0  0  0  0  0  0  0  0  0  0  0
    7.4307    0.3543   -1.2302 C   0  0  0  0  0  0  0  0  0  0  0  0
    6.0671   -0.1448   -1.5644 C   0  0  0  0  0  0  0  0  0  0  0  0
    5.3963   -0.8170   -0.3464 C   0  0  0  0  0  0  0  0  0  0  0  0
    5.2832    0.1618    0.7849 C   0  0  0  0  0  0  0  0  0  0  0  0
    6.3045    0.5252    1.3775 O   0  0  0  0  0  0  0  0  0  0  0  0
    4.0122    0.6292    1.1238 N   0  0  0  0  0  0  0  0  0  0  0  0
    2.8383   -0.2412    1.1270 C   0  0  0  0  0  0  0  0  0  0  0  0
    3.0949   -1.4346    2.0064 C   0  0  0  0  0  0  0  0  0  0  0  0
    3.4979   -1.1783    3.3803 C   0  0  0  0  0  0  0  0  0  0  0  0
    2.6914   -0.4157    4.3162 C   0  0  0  0  0  0  0  0  0  0  0  0
    2.3517    0.9028    4.0262 N   0  0  0  0  0  0  0  0  0  0  0  0
    1.3382    1.6625    3.4840 C   0  0  0  0  0  0  0  0  0  0  0  0
    0.0230    1.5395    3.0327 C   0  0  0  0  0  0  0  0  0  0  0  0
   -0.8836    0.6164    2.9282 C   0  0  0  0  0  0  0  0  0  0  0  0
   -0.5147   -0.7416    3.3884 C   0  0  0  0  0  0  0  0  0  0  0  0
   -2.2797    0.8951    2.4506 C   0  0  0  0  0  0  0  0  0  0  0  0
   -2.5916    0.1000    1.2346 C   0  0  0  0  0  0  0  0  0  0  0  0
   -3.9232    0.3799    0.7736 O   0  0  0  0  0  0  0  0  0  0  0  0
   -5.0427    0.1111    1.4881 C   0  0  0  0  0  0  0  0  0  0  0  0
   -6.4461    0.3482    1.2116 C   0  0  0  0  0  0  0  0  0  0  0  0
   -7.2431   -0.7244    0.5983 C   0  0  0  0  0  0  0  0  0  0  0  0
   -6.8706   -1.2020   -0.7603 C   0  0  0  0  0  0  0  0  0  0  0  0
   -6.9802   -0.1149   -1.8136 C   0  0  0  0  0  0  0  0  0  0  0  0
   -8.4047    0.3576   -1.8371 N   0  0  0  0  0  0  0  0  0  0  0  0
   -9.3384   -0.2351   -2.6646 C   0  0  0  0  0  0  0  0  0  0  0  0
   -8.7746   -1.1739   -3.4308 O   0  0  0  0  0  0  0  0  0  0  0  0
  -10.7235   -0.1376   -2.9336 C   0  0  0  0  0  0  0  0  0  0  0  0
  -11.7027    0.5635   -2.4407 C   0  0  0  0  0  0  0  0  0  0  0  0
  -11.4098    1.5043   -1.3501 C   0  0  0  0  0  0  0  0  0  0  0  0
  -13.1114    0.4125   -2.9424 C   0  0  0  0  0  0  0  0  0  0  0  0
  -13.6278    1.7036   -3.4847 C   0  0  0  0  0  0  0  0  0  0  0  0
  -12.8311    2.1251   -4.5258 O   0  0  0  0  0  0  0  0  0  0  0  0
   -8.6433    1.3810   -1.0241 O   0  0  0  0  0  0  0  0  0  0  0  0
   -7.2105   -1.9081    1.4765 N   0  0  0  0  0  0  0  0  0  0  0  0
   -8.4261   -2.4929    1.8842 C   0  0  0  0  0  0  0  0  0  0  0  0
   -8.5714   -3.6599    2.7408 C   0  0  0  0  0  0  0  0  0  0  0  0
   -9.5309   -1.9673    1.4707 O   0  0  0  0  0  0  0  0  0  0  0  0
   -4.8075   -0.4661    2.6381 O   0  0  0  0  0  0  0  0  0  0  0  0
    1.7461    2.9573    3.3578 O   0  0  0  0  0  0  0  0  0  0  0  0
    3.4744    1.7641    4.4509 O   0  0  0  0  0  0  0  0  0  0  0  0
    2.8771   -0.8082   -0.3225 C   0  0  0  0  0  0  0  0  0  0  0  0
    1.8089   -0.8207   -0.9766 O   0  0  0  0  0  0  0  0  0  0  0  0
    4.1150   -1.2713   -0.7975 N   0  0  0  0  0  0  0  0  0  0  0  0
  1  2  1  0
  2  3  1  0
  3  4  1  0
  4  5  1  0
  2  6  2  0
  6  7  1  0
  7  8  2  0
  7  9  1  0
  9 10  1  0
  9 11  1  0
 11 12  1  0
 12 13  1  0
 13 14  1  0
 14 15  1  0
 15 16  2  0
 15 17  1  0
 17 18  1  0
 18 19  1  0
 19 20  1  0
 20 21  1  0
 21 22  1  0
 22 23  1  0
 23 24  1  0
 24 25  2  0
 25 26  1  0
 25 27  1  0
 27 28  1  0
 28 29  1  0
 29 30  1  0
 30 31  1  0
 31 32  1  0
 32 33  1  0
 33 34  1  0
 34 35  1  0
 35 36  1  0
 36 37  2  0
 36 38  1  0
 38 39  2  0
 39 40  1  0
 39 41  1  0
 41 42  1  0
 42 43  1  0
 35 44  1  0
 32 45  1  0
 45 46  1  0
 46 47  1  0
 46 48  2  0
 30 49  2  0
 23 50  2  0
 22 51  1  0
 18 52  1  0
 52 53  2  0
 52 54  1  0
 54 14  1  0
M  END

