
     RDKit          3D

 58 60  0  0  0  0  0  0  0  0999 V2000
    2.1311    0.7824   -2.7578 C   0  0  0  0  0  0  0  0  0  0  0  0
    1.1499    0.6237   -1.6411 C   0  0  0  0  0  0  0  0  0  0  0  0
    1.1957    1.9232   -0.8277 C   0  0  0  0  0  0  0  0  0  0  0  0
   -0.2617    0.4976   -2.2000 C   0  0  1  0  0  0  0  0  0  0  0  0
   -0.2759   -0.6089   -3.0136 O   0  0  0  0  0  0  0  0  0  0  0  0
   -1.2310    0.3346   -1.0399 C   0  0  0  0  0  0  0  0  0  0  0  0
   -1.2885    1.3315   -0.3049 O   0  0  0  0  0  0  0  0  0  0  0  0
   -1.9548   -0.8283   -0.8606 N   0  0  0  0  0  0  0  0  0  0  0  0
   -2.9023   -1.2943    0.0646 C   0  0  0  0  0  0  0  0  0  0  0  0
   -4.2074   -0.6603    0.2443 C   0  0  0  0  0  0  0  0  0  0  0  0
   -4.3543    0.6707    0.7919 C   0  0  0  0  0  0  0  0  0  0  0  0
   -3.4927    1.3140    1.4169 O   0  0  0  0  0  0  0  0  0  0  0  0
   -5.6390    1.3220    0.5910 N   0  0  0  0  0  0  0  0  0  0  0  0
   -5.8222    2.6263    1.1098 C   0  0  0  0  0  0  0  0  0  0  0  0
   -7.1672    3.2151    0.8888 C   0  0  0  0  0  0  0  0  0  0  0  0
   -8.5477    2.4003    1.6256 S   0  0  0  0  0  0  0  0  0  0  0  0
   -9.1125    0.9532    0.8277 C   0  0  0  0  0  0  0  0  0  0  0  0
   -8.7908    0.5945   -0.2837 O   0  0  0  0  0  0  0  0  0  0  0  0
  -10.0963    0.0130    1.5086 C   0  0  0  0  0  0  0  0  0  0  0  0
  -10.5247   -1.1098    0.6625 C   0  0  2  0  0  0  0  0  0  0  0  0
  -11.2283   -0.8657   -0.5946 C   0  0  0  0  0  0  0  0  0  0  0  0
  -12.5654   -0.3920   -0.5513 N   0  0  0  0  0  4  0  0  0  0  0  0
  -12.6571    1.0629   -0.6193 C   0  0  0  0  0  0  0  0  0  0  0  0
  -13.2163   -0.8617   -1.7682 C   0  0  0  0  0  0  0  0  0  0  0  0
  -13.3549   -0.8957    0.5410 C   0  0  0  0  0  0  0  0  0  0  0  0
  -11.1634   -2.0805    1.4780 O   0  0  0  0  0  0  0  0  0  0  0  0
    1.4496   -0.5498   -0.7372 C   0  0  0  0  0  0  0  0  0  0  0  0
    2.6934   -0.4507   -0.1316 O   0  0  0  0  0  0  0  0  0  0  0  0
    2.9819   -1.7876    0.8781 P   0  0  0  0  0  5  0  0  0  0  0  0
    1.6964   -2.6178    0.9540 O   0  0  0  0  0  0  0  0  0  0  0  0
    4.2262   -2.7601    0.2885 O   0  0  0  0  0  0  0  0  0  0  0  0
    5.5230   -2.7231    1.3921 P   0  0  0  0  0  5  0  0  0  0  0  0
    6.6417   -3.5842    0.9086 O   0  0  0  0  0  0  0  0  0  0  0  0
    6.0418   -1.1151    1.4841 O   0  0  0  0  0  0  0  0  0  0  0  0
    7.0522   -0.9343    0.5443 C   0  0  0  0  0  0  0  0  0  0  0  0
    7.5261    0.4872    0.5979 C   0  0  2  0  0  0  0  0  0  0  0  0
    8.5393    0.7949   -0.4825 C   0  0  1  0  0  0  0  0  0  0  0  0
    7.9787    1.1483   -1.6804 O   0  0  0  0  0  0  0  0  0  0  0  0
    8.6430    0.1178   -2.8702 P   0  0  0  0  0  5  0  0  0  0  0  0
   10.2833    0.5646   -3.0534 O   0  0  0  0  0  1  0  0  0  0  0  0
    7.9457    0.2652   -4.1831 O   0  0  0  0  0  0  0  0  0  0  0  0
    8.6437   -1.4921   -2.3419 O   0  0  0  0  0  1  0  0  0  0  0  0
    9.3074    1.9283    0.1922 C   0  0  1  0  0  0  0  0  0  0  0  0
    8.5097    3.0735    0.1899 O   0  0  0  0  0  0  0  0  0  0  0  0
    9.3127    1.4087    1.6147 C   0  0  1  0  0  0  0  0  0  0  0  0
    8.0314    0.8959    1.7989 O   0  0  0  0  0  0  0  0  0  0  0  0
   10.2215    0.2942    1.8074 N   0  0  0  0  0  0  0  0  0  0  0  0
   11.4903    0.1962    1.3544 C   0  0  0  0  0  0  0  0  0  0  0  0
   12.2297    1.0530    0.6364 N   0  0  0  0  0  0  0  0  0  0  0  0
   13.4858    0.7048    0.3127 C   0  0  0  0  0  0  0  0  0  0  0  0
   14.0443   -0.4617    0.6712 N   0  0  0  0  0  0  0  0  0  0  0  0
   13.3299   -1.3347    1.3873 C   0  0  0  0  0  0  0  0  0  0  0  0
   12.0393   -1.0078    1.7353 C   0  0  0  0  0  0  0  0  0  0  0  0
   11.0704   -1.6602    2.4424 N   0  0  0  0  0  0  0  0  0  0  0  0
    9.9914   -0.8621    2.4727 C   0  0  0  0  0  0  0  0  0  0  0  0
   13.8669   -2.5721    1.7892 N   0  0  0  0  0  0  0  0  0  0  0  0
    5.0265   -3.3021    2.8974 O   0  0  0  0  0  1  0  0  0  0  0  0
    3.3207   -1.2888    2.4476 O   0  0  0  0  0  1  0  0  0  0  0  0
  1  2  1  0
  2  3  1  0
  2  4  1  0
  4  5  1  6
  4  6  1  0
  6  7  2  0
  6  8  1  0
  8  9  1  0
  9 10  1  0
 10 11  1  0
 11 12  2  0
 11 13  1  0
 13 14  1  0
 14 15  1  0
 15 16  1  0
 16 17  1  0
 17 18  2  0
 17 19  1  0
 19 20  1  0
 20 21  1  0
 21 22  1  0
 22 23  1  0
 22 24  1  0
 22 25  1  0
 20 26  1  1
  2 27  1  0
 27 28  1  0
 28 29  1  0
 29 30  2  0
 29 31  1  0
 31 32  1  0
 32 33  2  0
 32 34  1  0
 34 35  1  0
 36 35  1  1
 36 37  1  0
 37 38  1  6
 38 39  1  0
 39 40  1  0
 39 41  2  0
 39 42  1  0
 37 43  1  0
 43 44  1  1
 43 45  1  0
 45 46  1  0
 45 47  1  6
 47 48  1  0
 48 49  2  0
 49 50  1  0
 50 51  2  0
 51 52  1  0
 52 53  2  0
 53 54  1  0
 54 55  2  0
 52 56  1  0
 32 57  1  0
 29 58  1  0
 46 36  1  0
 55 47  1  0
 53 48  1  0
M  CHG  5  22   1  40  -1  42  -1  57  -1  58  -1
M  END

