
     RDKit          3D

 58 60  0  0  0  0  0  0  0  0999 V2000
   -1.5397   -1.2196    0.2415 C   0  0  0  0  0  0  0  0  0  0  0  0
   -0.4749   -1.1171   -0.8365 C   0  0  0  0  0  0  0  0  0  0  0  0
   -0.1943   -2.6187   -1.1998 C   0  0  0  0  0  0  0  0  0  0  0  0
   -0.9705   -0.5360   -2.1214 C   0  0  1  0  0  0  0  0  0  0  0  0
   -2.0061   -1.4205   -2.5622 O   0  0  0  0  0  0  0  0  0  0  0  0
   -1.5705    0.8372   -1.9787 C   0  0  0  0  0  0  0  0  0  0  0  0
   -2.8221    0.8491   -1.9174 O   0  0  0  0  0  0  0  0  0  0  0  0
   -0.7885    1.9820   -1.9234 N   0  0  0  0  0  0  0  0  0  0  0  0
   -1.0605    3.3668   -1.7820 C   0  0  0  0  0  0  0  0  0  0  0  0
   -1.7901    3.8167   -0.5616 C   0  0  0  0  0  0  0  0  0  0  0  0
   -3.2183    3.4736   -0.4802 C   0  0  0  0  0  0  0  0  0  0  0  0
   -3.9410    3.3659   -1.5312 O   0  0  0  0  0  0  0  0  0  0  0  0
   -3.8642    3.2433    0.7515 N   0  0  0  0  0  0  0  0  0  0  0  0
   -5.2748    2.8931    0.8706 C   0  0  0  0  0  0  0  0  0  0  0  0
   -5.5288    1.6008    0.1421 C   0  0  0  0  0  0  0  0  0  0  0  0
   -7.2803    1.1759    0.2808 S   0  0  0  0  0  0  0  0  0  0  0  0
   -7.6588    0.7970    1.9773 C   0  0  0  0  0  0  0  0  0  0  0  0
   -6.7467    0.9181    2.8106 O   0  0  0  0  0  0  0  0  0  0  0  0
   -8.9899    0.3503    2.4541 C   0  0  0  0  0  0  0  0  0  0  0  0
   -9.9313   -0.0769    1.3807 C   0  0  1  0  0  0  0  0  0  0  0  0
   -9.3738   -1.2375    0.6271 C   0  0  0  0  0  0  0  0  0  0  0  0
  -10.1778   -1.7383   -0.4376 N   0  0  0  0  0  4  0  0  0  0  0  0
  -11.5276   -1.2304   -0.4223 C   0  0  0  0  0  0  0  0  0  0  0  0
  -10.2925   -3.1973   -0.2853 C   0  0  0  0  0  0  0  0  0  0  0  0
   -9.5575   -1.5204   -1.7447 C   0  0  0  0  0  0  0  0  0  0  0  0
  -11.1325   -0.4404    1.9647 O   0  0  0  0  0  0  0  0  0  0  0  0
    0.7560   -0.5204   -0.2763 C   0  0  0  0  0  0  0  0  0  0  0  0
    0.6562    0.7254    0.2838 O   0  0  0  0  0  0  0  0  0  0  0  0
    2.1897    1.2413    0.8415 P   0  0  0  0  0  5  0  0  0  0  0  0
    3.2199    0.8255   -0.1877 O   0  0  0  0  0  0  0  0  0  0  0  0
    2.4884    0.5740    2.3409 O   0  0  0  0  0  0  0  0  0  0  0  0
    3.8648   -0.3677    2.2795 P   0  0  0  0  0  5  0  0  0  0  0  0
    4.5643   -0.4066    3.6227 O   0  0  0  0  0  0  0  0  0  0  0  0
    4.9206    0.3133    1.1202 O   0  0  0  0  0  0  0  0  0  0  0  0
    5.5881   -0.7451    0.5044 C   0  0  0  0  0  0  0  0  0  0  0  0
    6.5584   -0.3019   -0.5597 C   0  0  2  0  0  0  0  0  0  0  0  0
    7.2088   -1.4951   -1.1580 C   0  0  1  0  0  0  0  0  0  0  0  0
    7.2478   -1.4781   -2.5461 O   0  0  0  0  0  0  0  0  0  0  0  0
    6.7125   -2.8709   -3.2733 P   0  0  0  0  0  5  0  0  0  0  0  0
    8.0412   -3.5127   -4.1443 O   0  0  0  0  0  1  0  0  0  0  0  0
    6.3066   -3.9405   -2.3002 O   0  0  0  0  0  0  0  0  0  0  0  0
    5.5005   -2.5784   -4.4398 O   0  0  0  0  0  1  0  0  0  0  0  0
    8.6507   -1.3470   -0.7148 C   0  0  1  0  0  0  0  0  0  0  0  0
    9.5339   -1.8339   -1.6595 O   0  0  0  0  0  0  0  0  0  0  0  0
    8.7194    0.1820   -0.6090 C   0  0  1  0  0  0  0  0  0  0  0  0
    7.5258    0.5094    0.0288 O   0  0  0  0  0  0  0  0  0  0  0  0
    9.9054    0.6616    0.0056 N   0  0  0  0  0  0  0  0  0  0  0  0
   10.1900    0.8596    1.2832 C   0  0  0  0  0  0  0  0  0  0  0  0
    9.4701    0.6796    2.3955 N   0  0  0  0  0  0  0  0  0  0  0  0
   10.0047    0.9620    3.5993 C   0  0  0  0  0  0  0  0  0  0  0  0
   11.2704    1.4317    3.7353 N   0  0  0  0  0  0  0  0  0  0  0  0
   12.0351    1.6305    2.6553 C   0  0  0  0  0  0  0  0  0  0  0  0
   11.4765    1.3368    1.4186 C   0  0  0  0  0  0  0  0  0  0  0  0
   11.9661    1.4236    0.1879 N   0  0  0  0  0  0  0  0  0  0  0  0
   11.0342    1.0207   -0.6839 C   0  0  0  0  0  0  0  0  0  0  0  0
   13.3640    2.1220    2.7695 N   0  0  0  0  0  0  0  0  0  0  0  0
    3.5292   -1.9600    1.8079 O   0  0  0  0  0  1  0  0  0  0  0  0
    2.2717    2.9274    0.9456 O   0  0  0  0  0  1  0  0  0  0  0  0
  1  2  1  0
  2  3  1  0
  2  4  1  0
  4  5  1  1
  4  6  1  0
  6  7  2  0
  6  8  1  0
  8  9  1  0
  9 10  1  0
 10 11  1  0
 11 12  2  0
 11 13  1  0
 13 14  1  0
 14 15  1  0
 15 16  1  0
 16 17  1  0
 17 18  2  0
 17 19  1  0
 19 20  1  0
 20 21  1  0
 21 22  1  0
 22 23  1  0
 22 24  1  0
 22 25  1  0
 20 26  1  1
  2 27  1  0
 27 28  1  0
 28 29  1  0
 29 30  2  0
 29 31  1  0
 31 32  1  0
 32 33  2  0
 32 34  1  0
 34 35  1  0
 36 35  1  1
 36 37  1  0
 37 38  1  6
 38 39  1  0
 39 40  1  0
 39 41  2  0
 39 42  1  0
 37 43  1  0
 43 44  1  6
 43 45  1  0
 45 46  1  0
 45 47  1  1
 47 48  1  0
 48 49  2  0
 49 50  1  0
 50 51  2  0
 51 52  1  0
 52 53  2  0
 53 54  1  0
 54 55  2  0
 52 56  1  0
 32 57  1  0
 29 58  1  0
 46 36  1  0
 55 47  1  0
 53 48  1  0
M  CHG  5  22   1  40  -1  42  -1  57  -1  58  -1
M  END

