
     RDKit          3D

  8  8  0  0  0  0  0  0  0  0999 V2000
   -1.0460    1.0925    0.2478 C   0  0  0  0  0  0  0  0  0  0  0  0
   -1.8077   -0.0115    0.3370 N   0  0  0  0  0  0  0  0  0  0  0  0
   -1.1900   -1.1958    0.1659 C   0  0  0  0  0  0  0  0  0  0  0  0
   -1.8524   -2.2555    0.2387 O   0  0  0  0  0  0  0  0  0  0  0  0
    0.1291   -1.3062   -0.0845 N   0  0  0  0  0  0  0  0  0  0  0  0
    0.9377   -0.2148   -0.1830 C   0  0  0  0  0  0  0  0  0  0  0  0
    0.3075    1.0029   -0.0080 C   0  0  0  0  0  0  0  0  0  0  0  0
    2.3174   -0.3395   -0.4454 N   0  0  0  0  0  0  0  0  0  0  0  0
  1  2  1  0
  2  3  1  0
  3  4  2  0
  3  5  1  0
  5  6  2  0
  6  7  1  0
  6  8  1  0
  7  1  2  0
M  END

