
     RDKit          3D

  3  2  0  0  0  0  0  0  0  0999 V2000
   -0.0479    0.3878    0.0000 C   0  0  0  0  0  0  0  0  0  0  0  0
    1.0893   -0.3226    0.0000 O   0  0  0  0  0  1  0  0  0  0  0  0
   -1.0415    0.9846    0.0000 N   0  0  0  0  0  0  0  0  0  0  0  0
  1  2  1  0
  1  3  3  0
M  CHG  1   2  -1
M  END

