
     RDKit          3D

 14 13  0  0  0  0  0  0  0  0999 V2000
   -2.0025    0.1584   -0.4086 C   0  0  0  0  0  0  0  0  0  0  0  0
   -3.4207   -0.1374   -0.0305 C   0  0  1  0  0  0  0  0  0  0  0  0
   -4.0533    1.0845    0.5029 C   0  0  0  0  0  0  0  0  0  0  0  0
   -5.0940    0.9428    1.2068 O   0  0  0  0  0  0  0  0  0  0  0  0
   -3.5668    2.3647    0.2716 O   0  0  0  0  0  1  0  0  0  0  0  0
   -4.1548   -0.7147   -1.1409 N   0  0  0  0  0  4  0  0  0  0  0  0
   -1.0779    0.7232    1.0503 S   0  0  0  0  0  0  0  0  0  0  0  0
    0.9378    1.1599    0.5871 S   0  0  0  0  0  0  0  0  0  0  0  0
    2.0027   -0.3061    0.7852 C   0  0  0  0  0  0  0  0  0  0  0  0
    3.4024    0.0804    0.4417 C   0  0  1  0  0  0  0  0  0  0  0  0
    3.8509    1.1535    1.3416 C   0  0  0  0  0  0  0  0  0  0  0  0
    4.9861    1.8858    1.0749 O   0  0  0  0  0  1  0  0  0  0  0  0
    3.1891    1.4079    2.3709 O   0  0  0  0  0  0  0  0  0  0  0  0
    4.2908   -1.0537    0.6105 N   0  0  0  0  0  4  0  0  0  0  0  0
  1  2  1  0
  2  3  1  0
  3  4  2  0
  3  5  1  0
  2  6  1  6
  1  7  1  0
  7  8  1  0
  8  9  1  0
  9 10  1  0
 10 11  1  0
 11 12  1  0
 11 13  2  0
 10 14  1  1
M  CHG  4   5  -1   6   1  12  -1  14   1
M  END

