
     RDKit          3D

 14 13  0  0  0  0  0  0  0  0999 V2000
    0.7929   -0.5252   -0.6687 C   0  0  0  0  0  0  0  0  0  0  0  0
   -0.9491   -0.1265   -0.7227 S   0  0  0  0  0  0  0  0  0  0  0  0
   -1.6848   -0.0039    0.9260 C   0  0  0  0  0  0  0  0  0  0  0  0
   -3.1550    0.3284    0.8171 C   0  0  1  0  0  0  0  0  0  0  0  0
   -3.3602    1.6120    0.1239 C   0  0  0  0  0  0  0  0  0  0  0  0
   -4.5719    2.3041    0.2038 O   0  0  0  0  0  1  0  0  0  0  0  0
   -2.4529    2.1412   -0.5701 O   0  0  0  0  0  0  0  0  0  0  0  0
   -3.8438   -0.7591    0.1103 N   0  0  0  0  0  4  0  0  0  0  0  0
    1.6020    0.5955   -0.0534 C   0  0  0  0  0  0  0  0  0  0  0  0
    3.0685    0.2338   -0.0211 C   0  0  2  0  0  0  0  0  0  0  0  0
    3.4796    0.0095   -1.4019 N   0  0  0  0  0  4  0  0  0  0  0  0
    3.3407   -0.9813    0.7479 C   0  0  0  0  0  0  0  0  0  0  0  0
    3.5393   -2.1860    0.1073 O   0  0  0  0  0  1  0  0  0  0  0  0
    3.3952   -0.9384    1.9944 O   0  0  0  0  0  0  0  0  0  0  0  0
  1  2  1  0
  2  3  1  0
  3  4  1  0
  4  5  1  0
  5  6  1  0
  5  7  2  0
  4  8  1  6
  1  9  1  0
  9 10  1  0
 10 11  1  6
 10 12  1  0
 12 13  1  0
 12 14  2  0
M  CHG  4   6  -1   8   1  11   1  13  -1
M  END

