
     RDKit          3D

 18 20  0  0  0  0  0  0  0  0999 V2000
   -3.7969    0.8375    1.3419 C   0  0  0  0  0  0  0  0  0  0  0  0
   -2.7664    0.4825    0.2996 C   0  0  1  0  0  0  0  0  0  0  0  0
   -1.4792    0.6765    0.8192 O   0  0  0  0  0  0  0  0  0  0  0  0
   -0.6451    0.0902   -0.1340 C   0  0  1  0  0  0  0  0  0  0  0  0
    0.6866   -0.1313    0.3425 N   0  0  0  0  0  0  0  0  0  0  0  0
    1.7874    0.5136   -0.1294 C   0  0  0  0  0  0  0  0  0  0  0  0
    1.9435    1.4471   -1.0766 N   0  0  0  0  0  0  0  0  0  0  0  0
    3.1813    1.9160   -1.3393 C   0  0  0  0  0  0  0  0  0  0  0  0
    4.2598    1.4763   -0.6812 N   0  0  0  0  0  0  0  0  0  0  0  0
    4.1383    0.5439    0.2711 C   0  0  0  0  0  0  0  0  0  0  0  0
    2.8817    0.0425    0.5644 C   0  0  0  0  0  0  0  0  0  0  0  0
    2.4462   -0.8834    1.4522 N   0  0  0  0  0  0  0  0  0  0  0  0
    1.1083   -0.9674    1.2941 C   0  0  0  0  0  0  0  0  0  0  0  0
    5.2709    0.0741    0.9706 N   0  0  0  0  0  0  0  0  0  0  0  0
   -1.3331   -1.2093   -0.4815 C   0  0  2  0  0  0  0  0  0  0  0  0
   -1.2873   -1.4601   -1.8545 O   0  0  0  0  0  0  0  0  0  0  0  0
   -2.7867   -0.9849   -0.0553 C   0  0  2  0  0  0  0  0  0  0  0  0
   -3.6352   -1.2240   -1.1572 O   0  0  0  0  0  0  0  0  0  0  0  0
  2  1  1  1
  2  3  1  0
  3  4  1  0
  4  5  1  1
  5  6  1  0
  6  7  2  0
  7  8  1  0
  8  9  2  0
  9 10  1  0
 10 11  2  0
 11 12  1  0
 12 13  2  0
 10 14  1  0
  4 15  1  0
 15 16  1  6
 15 17  1  0
 17 18  1  6
 13  5  1  0
 11  6  1  0
 17  2  1  0
M  END

