
     RDKit          3D

 30 32  0  0  0  0  0  0  0  0999 V2000
    1.2294    0.2901   -0.1930 C   0  0  0  0  0  0  0  0  0  0  0  0
    2.4653   -0.3517   -0.1543 O   0  0  0  0  0  0  0  0  0  0  0  0
    3.7306    0.6169   -0.6552 P   0  0  0  0  0  5  0  0  0  0  0  0
    3.2886    2.0009   -0.9990 O   0  0  0  0  0  0  0  0  0  0  0  0
    4.5153   -0.0715   -2.0100 O   0  0  0  0  0  1  0  0  0  0  0  0
    4.8969    0.6166    0.5959 O   0  0  0  0  0  0  0  0  0  0  0  0
    5.7544    2.0726    0.5941 P   0  0  0  0  0  5  0  0  0  0  0  0
    6.0246    2.4932   -0.8439 O   0  0  0  0  0  0  0  0  0  0  0  0
    4.7866    3.2237    1.3704 O   0  0  0  0  0  1  0  0  0  0  0  0
    7.1999    1.8525    1.4440 O   0  0  0  0  0  0  0  0  0  0  0  0
    7.9933    0.4523    0.9969 P   0  0  0  0  0  5  0  0  0  0  0  0
    8.3762   -0.4139    2.1765 O   0  0  0  0  0  0  0  0  0  0  0  0
    9.3598    0.8176    0.0683 O   0  0  0  0  0  1  0  0  0  0  0  0
    6.9421   -0.4657    0.0093 O   0  0  0  0  0  1  0  0  0  0  0  0
    0.2001   -0.7116    0.2855 C   0  0  1  0  0  0  0  0  0  0  0  0
   -1.0922   -0.1391    0.2781 O   0  0  0  0  0  0  0  0  0  0  0  0
   -1.8845   -1.2530    0.4032 C   0  0  1  0  0  0  0  0  0  0  0  0
   -3.2968   -0.9709    0.2950 N   0  0  0  0  0  0  0  0  0  0  0  0
   -3.8750    0.2235    0.1753 C   0  0  0  0  0  0  0  0  0  0  0  0
   -5.2398    0.0139    0.1045 C   0  0  0  0  0  0  0  0  0  0  0  0
   -5.4247   -1.3143    0.1859 N   0  0  0  0  0  0  0  0  0  0  0  0
   -4.2362   -1.9331    0.3036 C   0  0  0  0  0  0  0  0  0  0  0  0
   -6.0721    1.1042   -0.0238 C   0  0  0  0  0  0  0  0  0  0  0  0
   -7.4524    0.8946   -0.0956 N   0  0  0  0  0  0  0  0  0  0  0  0
   -5.4924    2.3245   -0.0730 N   0  0  0  0  0  0  0  0  0  0  0  0
   -4.1647    2.5151   -0.0032 C   0  0  0  0  0  0  0  0  0  0  0  0
   -3.3388    1.4607    0.1223 N   0  0  0  0  0  0  0  0  0  0  0  0
   -1.3908   -2.1228   -0.7502 C   0  0  0  0  0  0  0  0  0  0  0  0
    0.1210   -1.9130   -0.6071 C   0  0  2  0  0  0  0  0  0  0  0  0
    0.5895   -3.0270    0.1162 O   0  0  0  0  0  0  0  0  0  0  0  0
  1  2  1  0
  2  3  1  0
  3  4  2  0
  3  5  1  0
  3  6  1  0
  6  7  1  0
  7  8  2  0
  7  9  1  0
  7 10  1  0
 10 11  1  0
 11 12  2  0
 11 13  1  0
 11 14  1  0
 15  1  1  6
 15 16  1  0
 16 17  1  0
 17 18  1  6
 18 19  1  0
 19 20  2  0
 20 21  1  0
 21 22  2  0
 20 23  1  0
 23 24  1  0
 23 25  2  0
 25 26  1  0
 26 27  2  0
 17 28  1  0
 28 29  1  0
 29 30  1  1
 22 18  1  0
 27 19  1  0
 29 15  1  0
M  CHG  4   5  -1   9  -1  13  -1  14  -1
M  END

