
     RDKit          3D

 31 33  0  0  0  0  0  0  0  0999 V2000
   -4.9591   -0.7369    1.3006 C   0  0  0  0  0  0  0  0  0  0  0  0
   -6.1443   -0.3817    0.4966 O   0  0  0  0  0  0  0  0  0  0  0  0
   -6.7183    1.0149    1.3347 P   0  0  0  0  0  5  0  0  0  0  0  0
   -7.5944    0.7882    2.4624 O   0  0  0  0  0  0  0  0  0  0  0  0
   -7.3793    2.0481    0.1800 O   0  0  0  0  0  1  0  0  0  0  0  0
   -5.2754    1.8365    1.8644 O   0  0  0  0  0  1  0  0  0  0  0  0
   -3.9145   -0.6756    0.3322 C   0  0  1  0  0  0  0  0  0  0  0  0
   -2.5857   -0.4662    0.9520 O   0  0  0  0  0  0  0  0  0  0  0  0
   -2.0295    0.1207   -0.2419 C   0  0  2  0  0  0  0  0  0  0  0  0
   -2.3736   -0.8301   -1.3234 C   0  0  2  0  0  0  0  0  0  0  0  0
   -3.1091   -0.1581   -2.3329 O   0  0  0  0  0  0  0  0  0  0  0  0
   -3.4512   -1.7122   -0.6005 C   0  0  2  0  0  0  0  0  0  0  0  0
   -4.3337   -2.2542   -1.4765 O   0  0  0  0  0  0  0  0  0  0  0  0
   -0.7062    0.5055   -0.1006 N   0  0  0  0  0  0  0  0  0  0  0  0
   -0.3018    1.6281    0.5350 C   0  0  0  0  0  0  0  0  0  0  0  0
    1.0221    1.7292    0.5203 N   0  0  0  0  0  0  0  0  0  0  0  0
    1.5169    0.6513   -0.1342 C   0  0  0  0  0  0  0  0  0  0  0  0
    2.8627    0.2796   -0.3401 C   0  0  0  0  0  0  0  0  0  0  0  0
    3.8464    1.2116    0.0049 N   0  0  0  0  0  0  0  0  0  0  0  0
    5.2451    1.0761    0.0824 C   0  0  0  0  0  0  0  0  0  0  0  0
    5.9252    0.1080   -0.7850 C   0  0  0  0  0  0  0  0  0  0  0  0
    7.4231    0.1638   -0.4758 C   0  0  0  0  0  0  0  0  0  0  0  0
    7.8295    1.1223    0.2729 O   0  0  0  0  0  0  0  0  0  0  0  0
    8.2237   -0.7959   -1.0048 O   0  0  0  0  0  1  0  0  0  0  0  0
    5.6137    0.7211    1.5422 C   0  0  0  0  0  0  0  0  0  0  0  0
    6.0769   -0.3852    1.7941 O   0  0  0  0  0  0  0  0  0  0  0  0
    5.3568    1.7495    2.4275 O   0  0  0  0  0  1  0  0  0  0  0  0
    3.0066   -0.8870   -0.9531 N   0  0  0  0  0  0  0  0  0  0  0  0
    1.9611   -1.6617   -1.3506 C   0  0  0  0  0  0  0  0  0  0  0  0
    0.6633   -1.2487   -1.1275 N   0  0  0  0  0  0  0  0  0  0  0  0
    0.4453   -0.0975   -0.5168 C   0  0  0  0  0  0  0  0  0  0  0  0
  1  2  1  0
  2  3  1  0
  3  4  2  0
  3  5  1  0
  3  6  1  0
  7  1  1  1
  7  8  1  0
  8  9  1  0
  9 10  1  0
 10 11  1  6
 10 12  1  0
 12 13  1  6
  9 14  1  1
 14 15  1  0
 15 16  2  0
 16 17  1  0
 17 18  2  0
 18 19  1  0
 19 20  1  0
 20 21  1  0
 21 22  1  0
 22 23  2  0
 22 24  1  0
 20 25  1  0
 25 26  2  0
 25 27  1  0
 18 28  1  0
 28 29  2  0
 29 30  1  0
 30 31  2  0
 12  7  1  0
 31 14  1  0
 31 17  1  0
M  CHG  4   5  -1   6  -1  24  -1  27  -1
M  END

