
     RDKit          3D

 20 21  0  0  0  0  0  0  0  0999 V2000
   -2.7595   -0.6672   -0.1500 C   0  0  0  0  0  0  0  0  0  0  0  0
   -4.0011   -0.2618    0.2704 O   0  0  0  0  0  0  0  0  0  0  0  0
   -5.1655   -0.8089   -0.8171 P   0  0  0  0  0  5  0  0  0  0  0  0
   -4.5186   -1.4861   -2.0184 O   0  0  0  0  0  0  0  0  0  0  0  0
   -6.1967   -1.8873   -0.0103 O   0  0  0  0  0  1  0  0  0  0  0  0
   -6.1105    0.4898   -1.3433 O   0  0  0  0  0  1  0  0  0  0  0  0
   -1.6442   -0.2265    0.7584 C   0  0  2  0  0  0  0  0  0  0  0  0
   -1.4013    1.2649    0.6932 C   0  0  2  0  0  0  0  0  0  0  0  0
    0.0311    1.3510    1.1772 C   0  0  0  0  0  0  0  0  0  0  0  0
    0.5301   -0.0509    0.9430 C   0  0  2  0  0  0  0  0  0  0  0  0
    1.8115   -0.1138    0.3271 N   0  0  0  0  0  0  0  0  0  0  0  0
    2.7956   -0.8115    0.9244 C   0  0  0  0  0  0  0  0  0  0  0  0
    4.0424   -0.8860    0.3465 C   0  0  0  0  0  0  0  0  0  0  0  0
    4.2338   -0.2220   -0.8557 C   0  0  0  0  0  0  0  0  0  0  0  0
    5.5199   -0.2879   -1.4697 N   0  0  0  0  0  0  0  0  0  0  0  0
    3.2117    0.4581   -1.4027 N   0  0  0  0  0  0  0  0  0  0  0  0
    1.9892    0.5419   -0.8539 C   0  0  0  0  0  0  0  0  0  0  0  0
    1.0500    1.1889   -1.3928 O   0  0  0  0  0  0  0  0  0  0  0  0
   -0.4427   -0.7138    0.1991 O   0  0  0  0  0  0  0  0  0  0  0  0
   -2.2547    1.9595    1.5549 O   0  0  0  0  0  0  0  0  0  0  0  0
  1  2  1  0
  2  3  1  0
  3  4  2  0
  3  5  1  0
  3  6  1  0
  7  1  1  6
  7  8  1  0
  8  9  1  0
  9 10  1  0
 10 11  1  6
 11 12  1  0
 12 13  2  0
 13 14  1  0
 14 15  1  0
 14 16  2  0
 16 17  1  0
 17 18  2  0
 10 19  1  0
  8 20  1  1
 17 11  1  0
 19  7  1  0
M  CHG  2   5  -1   6  -1
M  END

