
     RDKit          3D

 61 63  0  0  0  0  0  0  0  0999 V2000
   13.3503    1.8159   -3.7063 C   0  0  0  0  0  0  0  0  0  0  0  0
   14.3187    2.3124   -2.6513 C   0  0  0  0  0  0  0  0  0  0  0  0
   13.9120    1.6650   -1.3033 C   0  0  0  0  0  0  0  0  0  0  0  0
   14.8208    2.0978   -0.2190 C   0  0  0  0  0  0  0  0  0  0  0  0
   14.5406    1.5359    1.1058 C   0  0  0  0  0  0  0  0  0  0  0  0
   13.2963    1.8189    1.8270 C   0  0  0  0  0  0  0  0  0  0  0  0
   11.9831    1.4563    1.2537 C   0  0  0  0  0  0  0  0  0  0  0  0
   11.8209    0.0010    0.9300 C   0  0  0  0  0  0  0  0  0  0  0  0
   10.4346   -0.2116    0.3525 C   0  0  0  0  0  0  0  0  0  0  0  0
    9.4311    0.1989    1.3511 C   0  0  0  0  0  0  0  0  0  0  0  0
    8.5736   -0.7235    1.7826 C   0  0  0  0  0  0  0  0  0  0  0  0
    7.5601   -0.4057    2.7605 C   0  0  0  0  0  0  0  0  0  0  0  0
    6.4163   -1.6311    3.3285 S   0  0  0  0  0  0  0  0  0  0  0  0
    6.5020   -3.1678    2.4443 C   0  0  0  0  0  0  0  0  0  0  0  0
    6.0039   -3.1752    1.0407 C   0  0  0  0  0  0  0  0  0  0  0  0
    4.6255   -2.8841    0.8392 N   0  0  0  0  0  0  0  0  0  0  0  0
    3.9242   -1.6996    1.1383 C   0  0  0  0  0  0  0  0  0  0  0  0
    4.5065   -0.7146    1.6399 O   0  0  0  0  0  0  0  0  0  0  0  0
    2.4638   -1.5509    0.8795 C   0  0  0  0  0  0  0  0  0  0  0  0
    1.9957   -0.1993    1.3646 C   0  0  0  0  0  0  0  0  0  0  0  0
    0.5946   -0.0068    1.1530 N   0  0  0  0  0  0  0  0  0  0  0  0
   -0.0204   -0.0379   -0.1250 C   0  0  0  0  0  0  0  0  0  0  0  0
    0.6825   -0.2386   -1.1314 O   0  0  0  0  0  0  0  0  0  0  0  0
   -1.4814    0.1642   -0.2725 C   0  0  2  0  0  0  0  0  0  0  0  0
   -2.0306    0.3211    0.9973 O   0  0  0  0  0  0  0  0  0  0  0  0
   -2.1505   -0.9549   -1.0575 C   0  0  0  0  0  0  0  0  0  0  0  0
   -1.9049   -2.2425   -0.3203 C   0  0  0  0  0  0  0  0  0  0  0  0
   -1.5893   -0.9734   -2.4582 C   0  0  0  0  0  0  0  0  0  0  0  0
   -3.6250   -0.6280   -1.1551 C   0  0  0  0  0  0  0  0  0  0  0  0
   -4.3291   -1.5901   -1.8548 O   0  0  0  0  0  0  0  0  0  0  0  0
   -5.9560   -1.2613   -1.9846 P   0  0  0  0  0  5  0  0  0  0  0  0
   -6.6319   -2.3241   -2.8335 O   0  0  0  0  0  0  0  0  0  0  0  0
   -6.2960    0.2274   -2.6971 O   0  0  0  0  0  0  0  0  0  0  0  0
   -7.3222    1.1664   -1.7593 P   0  0  0  0  0  5  0  0  0  0  0  0
   -8.3845    1.7434   -2.6962 O   0  0  0  0  0  0  0  0  0  0  0  0
   -8.1315    0.3062   -0.5759 O   0  0  0  0  0  0  0  0  0  0  0  0
   -9.2808   -0.3025   -1.0326 C   0  0  0  0  0  0  0  0  0  0  0  0
   -9.9509   -1.0577    0.0900 C   0  0  1  0  0  0  0  0  0  0  0  0
  -10.2743   -0.1887    1.0979 O   0  0  0  0  0  0  0  0  0  0  0  0
  -11.6146    0.0939    1.0749 C   0  0  2  0  0  0  0  0  0  0  0  0
  -12.2779   -0.7371    0.0267 C   0  0  1  0  0  0  0  0  0  0  0  0
  -11.2101   -1.7425   -0.3479 C   0  0  2  0  0  0  0  0  0  0  0  0
  -11.3951   -2.8464    0.4924 O   0  0  0  0  0  0  0  0  0  0  0  0
  -11.5770   -4.2714   -0.3948 P   0  0  0  0  0  5  0  0  0  0  0  0
  -10.1656   -5.1692   -0.2357 O   0  0  0  0  0  1  0  0  0  0  0  0
  -12.6888   -5.0801    0.2532 O   0  0  0  0  0  0  0  0  0  0  0  0
  -11.9418   -3.8773   -1.9793 O   0  0  0  0  0  1  0  0  0  0  0  0
  -13.3832   -1.3561    0.6245 O   0  0  0  0  0  0  0  0  0  0  0  0
  -11.9184    1.4820    0.8225 N   0  0  0  0  0  0  0  0  0  0  0  0
  -13.1760    1.9361    0.6763 C   0  0  0  0  0  0  0  0  0  0  0  0
  -14.3997    1.3602    0.7073 N   0  0  0  0  0  0  0  0  0  0  0  0
  -15.5221    2.0714    0.5237 C   0  0  0  0  0  0  0  0  0  0  0  0
  -15.4706    3.4178    0.2969 N   0  0  0  0  0  0  0  0  0  0  0  0
  -14.2721    4.0312    0.2582 C   0  0  0  0  0  0  0  0  0  0  0  0
  -13.1217    3.3000    0.4465 C   0  0  0  0  0  0  0  0  0  0  0  0
  -11.8146    3.6142    0.4644 N   0  0  0  0  0  0  0  0  0  0  0  0
  -11.0748    2.5185    0.6919 C   0  0  0  0  0  0  0  0  0  0  0  0
  -14.2400    5.4319    0.0189 N   0  0  0  0  0  0  0  0  0  0  0  0
   -6.4953    2.5177   -1.1150 O   0  0  0  0  0  1  0  0  0  0  0  0
   -6.6584   -1.3853   -0.4405 O   0  0  0  0  0  1  0  0  0  0  0  0
    7.4656    0.7617    3.2336 O   0  0  0  0  0  0  0  0  0  0  0  0
  1  2  1  0
  2  3  1  0
  3  4  1  0
  4  5  1  0
  5  6  1  0
  6  7  1  0
  7  8  1  0
  8  9  1  0
  9 10  1  0
 10 11  2  0
 11 12  1  0
 12 13  1  0
 13 14  1  0
 14 15  1  0
 15 16  1  0
 16 17  1  0
 17 18  2  0
 17 19  1  0
 19 20  1  0
 20 21  1  0
 21 22  1  0
 22 23  2  0
 22 24  1  0
 24 25  1  1
 24 26  1  0
 26 27  1  0
 26 28  1  0
 26 29  1  0
 29 30  1  0
 30 31  1  0
 31 32  2  0
 31 33  1  0
 33 34  1  0
 34 35  2  0
 34 36  1  0
 36 37  1  0
 38 37  1  6
 38 39  1  0
 39 40  1  0
 40 41  1  0
 41 42  1  0
 42 43  1  1
 43 44  1  0
 44 45  1  0
 44 46  2  0
 44 47  1  0
 41 48  1  1
 40 49  1  6
 49 50  1  0
 50 51  2  0
 51 52  1  0
 52 53  2  0
 53 54  1  0
 54 55  2  0
 55 56  1  0
 56 57  2  0
 54 58  1  0
 34 59  1  0
 31 60  1  0
 12 61  2  0
 42 38  1  0
 57 49  1  0
 55 50  1  0
M  CHG  4  45  -1  47  -1  59  -1  60  -1
M  END

