
     RDKit          3D

 61 63  0  0  0  0  0  0  0  0999 V2000
   13.6256    0.3219    2.1662 C   0  0  0  0  0  0  0  0  0  0  0  0
   12.5894    0.6967    1.1528 C   0  0  0  0  0  0  0  0  0  0  0  0
   11.4571   -0.3215    1.0981 C   0  0  0  0  0  0  0  0  0  0  0  0
   10.7770   -0.3610    2.4455 C   0  0  0  0  0  0  0  0  0  0  0  0
    9.6346   -1.4147    2.3400 C   0  0  0  0  0  0  0  0  0  0  0  0
   10.1826   -2.7401    2.0781 C   0  0  0  0  0  0  0  0  0  0  0  0
    9.2159   -3.8814    1.9974 C   0  0  0  0  0  0  0  0  0  0  0  0
    8.1524   -3.7677    1.0025 C   0  0  0  0  0  0  0  0  0  0  0  0
    6.9926   -2.9030    1.2186 C   0  0  0  0  0  0  0  0  0  0  0  0
    5.9893   -3.4379    2.1536 C   0  0  0  0  0  0  0  0  0  0  0  0
    6.2326   -3.7346    3.5340 C   0  0  0  0  0  0  0  0  0  0  0  0
    6.6964   -2.7259    4.4575 C   0  0  0  0  0  0  0  0  0  0  0  0
    7.6588   -3.0578    5.2548 O   0  0  0  0  0  0  0  0  0  0  0  0
    6.1206   -1.0760    4.6444 S   0  0  0  0  0  0  0  0  0  0  0  0
    5.0387   -0.4879    3.4217 C   0  0  0  0  0  0  0  0  0  0  0  0
    3.6186   -1.1244    3.4999 C   0  0  0  0  0  0  0  0  0  0  0  0
    2.9920   -0.5759    2.3340 N   0  0  0  0  0  0  0  0  0  0  0  0
    1.6900   -0.8279    1.8324 C   0  0  0  0  0  0  0  0  0  0  0  0
    0.8881   -1.5710    2.4080 O   0  0  0  0  0  0  0  0  0  0  0  0
    1.4097   -0.1335    0.5969 C   0  0  0  0  0  0  0  0  0  0  0  0
    0.0200    0.0814    0.0656 C   0  0  0  0  0  0  0  0  0  0  0  0
    0.1093    0.8072   -1.1200 N   0  0  0  0  0  0  0  0  0  0  0  0
    0.2004    1.4874   -2.2519 C   0  0  0  0  0  0  0  0  0  0  0  0
    0.7920    1.0458   -3.3421 O   0  0  0  0  0  0  0  0  0  0  0  0
   -0.3296    2.8660   -2.4903 C   0  0  2  0  0  0  0  0  0  0  0  0
   -1.1116    3.1532   -1.3556 O   0  0  0  0  0  0  0  0  0  0  0  0
   -0.9971    3.1031   -3.7730 C   0  0  0  0  0  0  0  0  0  0  0  0
   -0.2385    2.8903   -5.0329 C   0  0  0  0  0  0  0  0  0  0  0  0
   -1.1853    4.7089   -3.7822 C   0  0  0  0  0  0  0  0  0  0  0  0
   -2.4026    2.5679   -3.8103 C   0  0  0  0  0  0  0  0  0  0  0  0
   -2.3905    1.2059   -3.5660 O   0  0  0  0  0  0  0  0  0  0  0  0
   -3.9574    0.5226   -3.6829 P   0  0  0  0  0  5  0  0  0  0  0  0
   -4.9136    1.7029   -3.9636 O   0  0  0  0  0  0  0  0  0  0  0  0
   -4.4182   -0.3945   -2.3881 O   0  0  0  0  0  0  0  0  0  0  0  0
   -4.4507    0.3449   -0.9004 P   0  0  0  0  0  5  0  0  0  0  0  0
   -4.0548    1.8253   -0.9867 O   0  0  0  0  0  0  0  0  0  0  0  0
   -5.9256    0.2742   -0.0979 O   0  0  0  0  0  0  0  0  0  0  0  0
   -6.7213   -0.7961   -0.4670 C   0  0  0  0  0  0  0  0  0  0  0  0
   -7.9934   -0.6292    0.4153 C   0  0  2  0  0  0  0  0  0  0  0  0
   -9.0026   -1.6751    0.1778 C   0  0  1  0  0  0  0  0  0  0  0  0
   -9.5571   -2.2486    1.2747 O   0  0  0  0  0  0  0  0  0  0  0  0
   -9.6816   -3.8508    1.4653 P   0  0  0  0  0  5  0  0  0  0  0  0
   -9.3520   -4.4167    3.0341 O   0  0  0  0  0  1  0  0  0  0  0  0
  -11.0371   -4.4443    1.0900 O   0  0  0  0  0  0  0  0  0  0  0  0
   -8.5472   -4.6199    0.4600 O   0  0  0  0  0  1  0  0  0  0  0  0
  -10.0107   -0.9322   -0.6799 C   0  0  1  0  0  0  0  0  0  0  0  0
  -11.2973   -1.4340   -0.5055 O   0  0  0  0  0  0  0  0  0  0  0  0
   -9.8621    0.4617   -0.1918 C   0  0  1  0  0  0  0  0  0  0  0  0
   -8.5249    0.6074    0.1280 O   0  0  0  0  0  0  0  0  0  0  0  0
  -10.2699    1.4788   -1.1601 N   0  0  0  0  0  0  0  0  0  0  0  0
  -11.1275    2.4815   -0.9481 C   0  0  0  0  0  0  0  0  0  0  0  0
  -11.8299    2.8444    0.1600 N   0  0  0  0  0  0  0  0  0  0  0  0
  -12.6331    3.9078    0.1675 C   0  0  0  0  0  0  0  0  0  0  0  0
  -12.7622    4.6566   -0.9539 N   0  0  0  0  0  0  0  0  0  0  0  0
  -12.0960    4.3547   -2.0874 C   0  0  0  0  0  0  0  0  0  0  0  0
  -11.2709    3.2521   -2.0702 C   0  0  0  0  0  0  0  0  0  0  0  0
  -10.4444    2.6698   -3.0003 N   0  0  0  0  0  0  0  0  0  0  0  0
   -9.8513    1.6067   -2.4449 C   0  0  0  0  0  0  0  0  0  0  0  0
  -12.2636    5.1529   -3.2234 N   0  0  0  0  0  0  0  0  0  0  0  0
   -3.2502   -0.3678    0.0870 O   0  0  0  0  0  1  0  0  0  0  0  0
   -4.0058   -0.4246   -5.1212 O   0  0  0  0  0  1  0  0  0  0  0  0
  1  2  1  0
  2  3  1  0
  3  4  1  0
  4  5  1  0
  5  6  1  0
  6  7  1  0
  7  8  1  0
  8  9  1  0
  9 10  1  0
 10 11  1  0
 11 12  1  0
 12 13  2  0
 12 14  1  0
 14 15  1  0
 15 16  1  0
 16 17  1  0
 17 18  1  0
 18 19  2  0
 18 20  1  0
 20 21  1  0
 21 22  1  0
 22 23  1  0
 23 24  2  0
 23 25  1  0
 25 26  1  1
 25 27  1  0
 27 28  1  0
 27 29  1  0
 27 30  1  0
 30 31  1  0
 31 32  1  0
 32 33  2  0
 32 34  1  0
 34 35  1  0
 35 36  2  0
 35 37  1  0
 37 38  1  0
 39 38  1  6
 39 40  1  0
 40 41  1  1
 41 42  1  0
 42 43  1  0
 42 44  2  0
 42 45  1  0
 40 46  1  0
 46 47  1  1
 46 48  1  0
 48 49  1  0
 48 50  1  6
 50 51  1  0
 51 52  2  0
 52 53  1  0
 53 54  2  0
 54 55  1  0
 55 56  2  0
 56 57  1  0
 57 58  2  0
 55 59  1  0
 35 60  1  0
 32 61  1  0
 49 39  1  0
 58 50  1  0
 56 51  1  0
M  CHG  4  43  -1  45  -1  60  -1  61  -1
M  END

