
     RDKit          3D

 41 40  0  0  0  0  0  0  0  0999 V2000
   -1.3549    2.4822    1.2132 C   0  0  0  0  0  0  0  0  0  0  0  0
   -0.8465    3.4377   -0.1814 S   0  0  0  0  0  0  0  0  0  0  0  0
   -0.0540    2.2882   -1.9101 Se  0  0  0  0  0  2  0  0  0  0  0  0
    2.0335    2.9731   -2.3553 S   0  0  0  0  0  0  0  0  0  0  0  0
    3.2774    1.9569   -1.5948 C   0  0  0  0  0  0  0  0  0  0  0  0
    3.3467    0.5275   -2.1411 C   0  0  1  0  0  0  0  0  0  0  0  0
    3.6557    0.5615   -3.5796 C   0  0  0  0  0  0  0  0  0  0  0  0
    2.7019    1.0111   -4.5121 N   0  0  0  0  0  0  0  0  0  0  0  0
    3.0217    1.0440   -5.9446 C   0  0  0  0  0  0  0  0  0  0  0  0
    1.8504    1.5551   -6.6900 C   0  0  0  0  0  0  0  0  0  0  0  0
    1.9532    1.6623   -8.0685 O   0  0  0  0  0  1  0  0  0  0  0  0
    0.7776    1.8929   -6.1342 O   0  0  0  0  0  0  0  0  0  0  0  0
    4.7795    0.1883   -4.0132 O   0  0  0  0  0  0  0  0  0  0  0  0
    4.4946   -0.0517   -1.4629 N   0  0  0  0  0  0  0  0  0  0  0  0
    4.3162   -1.1479   -0.5781 C   0  0  0  0  0  0  0  0  0  0  0  0
    3.1830   -1.6441   -0.3544 O   0  0  0  0  0  0  0  0  0  0  0  0
    5.4811   -1.7452    0.1164 C   0  0  0  0  0  0  0  0  0  0  0  0
    4.9949   -2.8546    1.0034 C   0  0  0  0  0  0  0  0  0  0  0  0
    6.1211   -3.5254    1.7522 C   0  0  2  0  0  0  0  0  0  0  0  0
    7.0880   -4.1059    0.8256 N   0  0  0  0  0  4  0  0  0  0  0  0
    5.5394   -4.5415    2.6480 C   0  0  0  0  0  0  0  0  0  0  0  0
    5.7151   -5.8784    2.3828 O   0  0  0  0  0  1  0  0  0  0  0  0
    4.8873   -4.1850    3.6475 O   0  0  0  0  0  0  0  0  0  0  0  0
   -2.6450    1.7428    0.9548 C   0  0  1  0  0  0  0  0  0  0  0  0
   -2.6131    0.8100   -0.1700 C   0  0  0  0  0  0  0  0  0  0  0  0
   -2.8391    1.1433   -1.5216 N   0  0  0  0  0  0  0  0  0  0  0  0
   -2.7996    0.1688   -2.5866 C   0  0  0  0  0  0  0  0  0  0  0  0
   -3.0793    0.8696   -3.8636 C   0  0  0  0  0  0  0  0  0  0  0  0
   -3.0924    0.1307   -5.0406 O   0  0  0  0  0  1  0  0  0  0  0  0
   -3.2990    2.0862   -3.9030 O   0  0  0  0  0  0  0  0  0  0  0  0
   -2.3661   -0.4237    0.0776 O   0  0  0  0  0  0  0  0  0  0  0  0
   -2.9940    1.0206    2.1938 N   0  0  0  0  0  0  0  0  0  0  0  0
   -4.2221    1.3339    2.8147 C   0  0  0  0  0  0  0  0  0  0  0  0
   -4.9630    2.1996    2.3000 O   0  0  0  0  0  0  0  0  0  0  0  0
   -4.5587    0.6070    4.0525 C   0  0  0  0  0  0  0  0  0  0  0  0
   -5.9331    0.9156    4.5409 C   0  0  0  0  0  0  0  0  0  0  0  0
   -6.9721    0.4889    3.5421 C   0  0  2  0  0  0  0  0  0  0  0  0
   -8.3108    0.8259    4.0386 N   0  0  0  0  0  4  0  0  0  0  0  0
   -6.9207   -1.0133    3.4362 C   0  0  0  0  0  0  0  0  0  0  0  0
   -6.2409   -1.7230    4.3844 O   0  0  0  0  0  1  0  0  0  0  0  0
   -7.5096   -1.5923    2.4720 O   0  0  0  0  0  0  0  0  0  0  0  0
  1  2  1  0
  2  3  1  0
  3  4  1  0
  4  5  1  0
  6  5  1  1
  6  7  1  0
  7  8  1  0
  8  9  1  0
  9 10  1  0
 10 11  1  0
 10 12  2  0
  7 13  2  0
  6 14  1  0
 14 15  1  0
 15 16  2  0
 15 17  1  0
 17 18  1  0
 18 19  1  0
 19 20  1  6
 19 21  1  0
 21 22  1  0
 21 23  2  0
 24  1  1  1
 24 25  1  0
 25 26  1  0
 26 27  1  0
 27 28  1  0
 28 29  1  0
 28 30  2  0
 25 31  2  0
 24 32  1  0
 32 33  1  0
 33 34  2  0
 33 35  1  0
 35 36  1  0
 36 37  1  0
 37 38  1  1
 37 39  1  0
 39 40  1  0
 39 41  2  0
M  CHG  6  11  -1  20   1  22  -1  29  -1  38   1  40  -1
M  END

