
     RDKit          3D

 19 21  0  0  0  0  0  0  0  0999 V2000
   -3.3154    0.4244    1.3820 C   0  0  0  0  0  0  0  0  0  0  0  0
   -3.6802    1.7510    1.2183 O   0  0  0  0  0  0  0  0  0  0  0  0
   -2.5860   -0.0820    0.1609 C   0  0  1  0  0  0  0  0  0  0  0  0
   -1.4237    0.6466   -0.0926 O   0  0  0  0  0  0  0  0  0  0  0  0
   -0.8706   -0.0976   -1.1334 C   0  0  1  0  0  0  0  0  0  0  0  0
    0.3967    0.3953   -1.5768 N   0  0  0  0  0  0  0  0  0  0  0  0
    1.5471    0.4317   -0.8835 C   0  0  0  0  0  0  0  0  0  0  0  0
    1.7860    0.0215    0.3743 N   0  0  0  0  0  0  0  0  0  0  0  0
    3.0616    0.1773    0.8351 C   0  0  0  0  0  0  0  0  0  0  0  0
    3.4352   -0.2160    2.1405 N   0  0  0  0  0  0  0  0  0  0  0  0
    4.0175    0.7159    0.0557 N   0  0  0  0  0  0  0  0  0  0  0  0
    3.7829    1.1307   -1.2114 C   0  0  0  0  0  0  0  0  0  0  0  0
    4.7026    1.6330   -1.9189 O   0  0  0  0  0  0  0  0  0  0  0  0
    2.5219    0.9875   -1.6958 C   0  0  0  0  0  0  0  0  0  0  0  0
    1.9198    1.2758   -2.8780 N   0  0  0  0  0  0  0  0  0  0  0  0
    0.6177    0.9113   -2.8006 C   0  0  0  0  0  0  0  0  0  0  0  0
   -0.8011   -1.4753   -0.5157 C   0  0  0  0  0  0  0  0  0  0  0  0
   -2.0632   -1.4753    0.3391 C   0  0  2  0  0  0  0  0  0  0  0  0
   -2.9659   -2.4021   -0.2176 O   0  0  0  0  0  0  0  0  0  0  0  0
  1  2  1  0
  3  1  1  1
  3  4  1  0
  4  5  1  0
  5  6  1  1
  6  7  1  0
  7  8  1  0
  8  9  2  0
  9 10  1  0
  9 11  1  0
 11 12  1  0
 12 13  2  0
 12 14  1  0
 14 15  1  0
 15 16  2  0
  5 17  1  0
 17 18  1  0
 18 19  1  6
 16  6  1  0
 14  7  2  0
 18  3  1  0
M  END

