
     RDKit          3D

  6  5  0  0  0  0  0  0  0  0999 V2000
    0.8476    0.7923    0.3750 C   0  0  0  0  0  0  0  0  0  0  0  0
    0.2087   -0.4644    0.7433 C   0  0  0  0  0  0  0  0  0  0  0  0
   -1.1719   -0.8664    0.3669 C   0  0  0  0  0  0  0  0  0  0  0  0
   -1.8283    0.0843   -0.3908 O   0  0  0  0  0  0  0  0  0  0  0  0
    0.8271   -1.2731    1.4129 O   0  0  0  0  0  0  0  0  0  0  0  0
    2.1238    0.8379    0.8881 O   0  0  0  0  0  0  0  0  0  0  0  0
  1  2  1  0
  2  3  1  0
  3  4  1  0
  2  5  2  0
  1  6  1  0
M  END

