
     RDKit          3D

 10  9  0  0  0  0  0  0  0  0999 V2000
    0.2588   -0.5019   -0.6086 C   0  0  0  0  0  0  0  0  0  0  0  0
   -1.1152   -0.9099   -0.3067 C   0  0  0  0  0  0  0  0  0  0  0  0
   -1.5724   -1.8181   -0.9854 O   0  0  0  0  0  0  0  0  0  0  0  0
   -1.9960   -0.3413    0.7243 C   0  0  0  0  0  0  0  0  0  0  0  0
   -1.3276    0.6612    1.3884 O   0  0  0  0  0  0  0  0  0  0  0  0
    0.7432    0.5245    0.1748 O   0  0  0  0  0  0  0  0  0  0  0  0
    2.3324    0.8387   -0.3331 P   0  0  0  0  0  5  0  0  0  0  0  0
    3.3738    0.0662    0.7873 O   0  0  0  0  0  1  0  0  0  0  0  0
    2.6954    2.4647   -0.3072 O   0  0  0  0  0  1  0  0  0  0  0  0
    2.5883    0.3090   -1.7200 O   0  0  0  0  0  0  0  0  0  0  0  0
  1  2  1  0
  2  3  2  0
  2  4  1  0
  4  5  1  0
  1  6  1  0
  6  7  1  0
  7  8  1  0
  7  9  1  0
  7 10  2  0
M  CHG  2   8  -1   9  -1
M  END

