
     RDKit          3D

  5  4  0  0  0  0  0  0  0  0999 V2000
   -1.0772   -0.0351   -0.0583 C   0  0  0  0  0  0  0  0  0  0  0  0
   -1.9243    0.0926   -0.9734 O   0  0  0  0  0  0  0  0  0  0  0  0
   -1.5413   -0.2822    1.2150 O   0  0  0  0  0  1  0  0  0  0  0  0
    0.3561    0.0638   -0.2730 C   0  0  0  0  0  0  0  0  0  0  0  0
    1.1749   -0.0780    0.7144 N   0  0  0  0  0  0  0  0  0  0  0  0
  1  2  2  0
  1  3  1  0
  1  4  1  0
  4  5  2  0
M  CHG  1   3  -1
M  END

