
     RDKit          3D

  9  8  0  0  0  0  0  0  0  0999 V2000
   -2.9064    0.1536   -0.5256 C   0  0  0  0  0  0  0  0  0  0  0  0
   -1.5758   -0.4440   -0.3419 C   0  0  0  0  0  0  0  0  0  0  0  0
   -0.4496    0.3389    0.1343 C   0  0  0  0  0  0  0  0  0  0  0  0
    0.8973   -0.2073    0.3349 C   0  0  2  0  0  0  0  0  0  0  0  0
    1.9488    0.5576   -0.4765 C   0  0  0  0  0  0  0  0  0  0  0  0
    3.1809   -0.0297   -0.1710 O   0  0  0  0  0  0  0  0  0  0  0  0
    0.8864   -1.5572   -0.0037 O   0  0  0  0  0  0  0  0  0  0  0  0
   -0.6269    1.5639    0.3949 O   0  0  0  0  0  0  0  0  0  0  0  0
   -1.3880   -1.6620   -0.5981 O   0  0  0  0  0  0  0  0  0  0  0  0
  1  2  1  0
  2  3  1  0
  3  4  1  0
  4  5  1  0
  5  6  1  0
  4  7  1  6
  3  8  2  0
  2  9  2  0
M  END

