
     RDKit          3D

 23 25  0  0  0  0  0  0  0  0999 V2000
   -0.6180   -0.8661   -0.2742 C   0  0  0  0  0  0  0  0  0  0  0  0
   -1.4063    0.3411   -0.0958 N   0  0  0  0  0  0  0  0  0  0  0  0
   -2.8153    0.3163    0.0278 C   0  0  0  0  0  0  0  0  0  0  0  0
   -3.5428   -0.8659   -0.0130 C   0  0  0  0  0  0  0  0  0  0  0  0
   -4.9150   -0.8972    0.1067 C   0  0  0  0  0  0  0  0  0  0  0  0
   -5.5800    0.3001    0.2731 C   0  0  0  0  0  0  0  0  0  0  0  0
   -7.0294    0.3396    0.4061 C   0  0  0  0  0  0  0  0  0  0  0  0
   -7.6770   -0.7163    0.3694 O   0  0  0  0  0  0  0  0  0  0  0  0
   -7.6873    1.5452    0.5727 O   0  0  0  0  0  1  0  0  0  0  0  0
   -4.8579    1.4925    0.3153 C   0  0  0  0  0  0  0  0  0  0  0  0
   -3.5018    1.4936    0.1944 C   0  0  0  0  0  0  0  0  0  0  0  0
    0.8452   -0.4830   -0.3707 C   0  0  0  0  0  0  0  0  0  0  0  0
    1.2476    0.4090   -1.4514 C   0  0  0  0  0  0  0  0  0  0  0  0
    2.6439    0.6999   -1.4436 N   0  0  0  0  0  0  0  0  0  0  0  0
    3.5234    0.1668   -0.4786 C   0  0  0  0  0  0  0  0  0  0  0  0
    4.8495    0.4381   -0.4643 N   0  0  0  0  0  0  0  0  0  0  0  0
    5.7057   -0.0530    0.4378 C   0  0  0  0  0  0  0  0  0  0  0  0
    7.0773    0.2584    0.4112 N   0  0  0  0  0  0  0  0  0  0  0  0
    5.2310   -0.8661    1.3923 N   0  0  0  0  0  0  0  0  0  0  0  0
    3.9241   -1.1702    1.4276 C   0  0  0  0  0  0  0  0  0  0  0  0
    3.5197   -1.9338    2.3358 O   0  0  0  0  0  0  0  0  0  0  0  0
    3.0515   -0.6617    0.4974 C   0  0  0  0  0  0  0  0  0  0  0  0
    1.6719   -0.9415    0.4793 N   0  0  0  0  0  0  0  0  0  0  0  0
  1  2  1  0
  2  3  1  0
  3  4  2  0
  4  5  1  0
  5  6  2  0
  6  7  1  0
  7  8  2  0
  7  9  1  0
  6 10  1  0
 10 11  2  0
  1 12  1  0
 12 13  1  0
 13 14  1  0
 14 15  1  0
 15 16  1  0
 16 17  2  0
 17 18  1  0
 17 19  1  0
 19 20  1  0
 20 21  2  0
 20 22  1  0
 22 23  1  0
 11  3  1  0
 23 12  2  0
 22 15  2  0
M  CHG  1   9  -1
M  END

