
     RDKit          3D

 26 28  0  0  0  0  0  0  0  0999 V2000
    2.4653   -0.4345   -0.8609 C   0  0  0  0  0  0  0  0  0  0  0  0
    3.2742   -1.2908   -0.0166 O   0  0  0  0  0  0  0  0  0  0  0  0
    4.2145   -0.2147    0.9238 P   0  0  0  0  0  5  0  0  0  0  0  0
    3.9248   -0.5637    2.4146 O   0  0  0  0  0  0  0  0  0  0  0  0
    3.6188    1.3583    0.6432 O   0  0  0  0  0  1  0  0  0  0  0  0
    5.8081   -0.3342    0.6350 O   0  0  0  0  0  0  0  0  0  0  0  0
    6.4099    0.5098   -0.6757 P   0  0  0  0  0  5  0  0  0  0  0  0
    5.3792    1.3344   -1.3610 O   0  0  0  0  0  0  0  0  0  0  0  0
    7.6589    1.5478   -0.0940 O   0  0  0  0  0  1  0  0  0  0  0  0
    7.1315   -0.5522   -1.7895 O   0  0  0  0  0  1  0  0  0  0  0  0
    1.1168   -0.4504   -0.2477 C   0  0  1  0  0  0  0  0  0  0  0  0
    0.2102    0.4694   -0.7968 O   0  0  0  0  0  0  0  0  0  0  0  0
   -0.8988    0.0667    0.0462 C   0  0  1  0  0  0  0  0  0  0  0  0
   -1.9951    0.9135   -0.1430 N   0  0  0  0  0  0  0  0  0  0  0  0
   -3.2761    0.5524    0.1122 C   0  0  0  0  0  0  0  0  0  0  0  0
   -3.8227   -0.6000    0.5734 N   0  0  0  0  0  0  0  0  0  0  0  0
   -5.1297   -0.7253    0.7475 C   0  0  0  0  0  0  0  0  0  0  0  0
   -5.9357    0.3039    0.4630 N   0  0  0  0  0  0  0  0  0  0  0  0
   -5.4340    1.4880   -0.0062 C   0  0  0  0  0  0  0  0  0  0  0  0
   -6.2687    2.4000   -0.2554 O   0  0  0  0  0  0  0  0  0  0  0  0
   -4.0586    1.6189   -0.1885 C   0  0  0  0  0  0  0  0  0  0  0  0
   -3.3145    2.6490   -0.6315 N   0  0  0  0  0  0  0  0  0  0  0  0
   -2.0471    2.2096   -0.6002 C   0  0  0  0  0  0  0  0  0  0  0  0
   -1.0185   -1.3213   -0.5156 C   0  0  0  0  0  0  0  0  0  0  0  0
    0.4730   -1.7739   -0.2644 C   0  0  2  0  0  0  0  0  0  0  0  0
    0.4005   -2.3421    1.0171 O   0  0  0  0  0  0  0  0  0  0  0  0
  1  2  1  0
  2  3  1  0
  3  4  2  0
  3  5  1  0
  3  6  1  0
  6  7  1  0
  7  8  2  0
  7  9  1  0
  7 10  1  0
 11  1  1  6
 11 12  1  0
 12 13  1  0
 13 14  1  6
 14 15  1  0
 15 16  1  0
 16 17  2  0
 17 18  1  0
 18 19  1  0
 19 20  2  0
 19 21  1  0
 21 22  1  0
 22 23  2  0
 13 24  1  0
 24 25  1  0
 25 26  1  1
 23 14  1  0
 21 15  2  0
 25 11  1  0
M  CHG  3   5  -1   9  -1  10  -1
M  END

