
     RDKit          3D

 18 20  0  0  0  0  0  0  0  0999 V2000
   -2.9025    0.5752    1.0134 C   0  0  0  0  0  0  0  0  0  0  0  0
   -3.0204    1.9644    1.1648 O   0  0  0  0  0  0  0  0  0  0  0  0
   -2.6383    0.2512   -0.4634 C   0  0  1  0  0  0  0  0  0  0  0  0
   -1.4909    0.8324   -0.9160 O   0  0  0  0  0  0  0  0  0  0  0  0
   -0.4568   -0.0611   -0.8614 C   0  0  1  0  0  0  0  0  0  0  0  0
    0.7210    0.4731   -0.2334 N   0  0  0  0  0  0  0  0  0  0  0  0
    1.9213   -0.1002   -0.1137 C   0  0  0  0  0  0  0  0  0  0  0  0
    2.7906    0.7500    0.5621 C   0  0  0  0  0  0  0  0  0  0  0  0
    2.0677    1.8460    0.8395 N   0  0  0  0  0  0  0  0  0  0  0  0
    0.8072    1.6789    0.3558 C   0  0  0  0  0  0  0  0  0  0  0  0
    4.0973    0.3538    0.7984 C   0  0  0  0  0  0  0  0  0  0  0  0
    4.4826   -0.8479    0.3631 N   0  0  0  0  0  0  0  0  0  0  0  0
    3.6270   -1.6582   -0.2897 C   0  0  0  0  0  0  0  0  0  0  0  0
    2.3467   -1.2919   -0.5315 N   0  0  0  0  0  0  0  0  0  0  0  0
    4.9610    1.2063    1.4735 O   0  0  0  0  0  0  0  0  0  0  0  0
   -0.9560   -1.3131   -0.1696 C   0  0  0  0  0  0  0  0  0  0  0  0
   -2.4280   -1.2481   -0.5285 C   0  0  2  0  0  0  0  0  0  0  0  0
   -2.6530   -1.6927   -1.8315 O   0  0  0  0  0  0  0  0  0  0  0  0
  1  2  1  0
  3  1  1  1
  3  4  1  0
  4  5  1  0
  5  6  1  1
  6  7  1  0
  7  8  2  0
  8  9  1  0
  9 10  2  0
  8 11  1  0
 11 12  2  0
 12 13  1  0
 13 14  2  0
 11 15  1  0
  5 16  1  0
 16 17  1  0
 17 18  1  6
 10  6  1  0
 14  7  1  0
 17  3  1  0
M  END

