
     RDKit          3D

 11 12  0  0  0  0  0  0  0  0999 V2000
   -1.9788    1.7552    0.2086 C   0  0  0  0  0  0  0  0  0  0  0  0
   -0.8018    0.8831    0.1215 C   0  0  0  0  0  0  0  0  0  0  0  0
   -0.9012   -0.4462    0.4805 C   0  0  0  0  0  0  0  0  0  0  0  0
   -2.2053   -0.9837    0.9540 C   0  0  0  0  0  0  0  0  0  0  0  0
    0.2235   -1.2764    0.3964 C   0  0  0  0  0  0  0  0  0  0  0  0
    1.4248   -0.7678   -0.0430 C   0  0  0  0  0  0  0  0  0  0  0  0
    2.6296   -1.3323   -0.2145 N   0  0  0  0  0  0  0  0  0  0  0  0
    3.4777   -0.3875   -0.6716 C   0  0  0  0  0  0  0  0  0  0  0  0
    2.7685    0.7696   -0.7774 N   0  0  0  0  0  0  0  0  0  0  0  0
    1.4981    0.5629   -0.3956 C   0  0  0  0  0  0  0  0  0  0  0  0
    0.4114    1.4111   -0.3259 C   0  0  0  0  0  0  0  0  0  0  0  0
  1  2  1  0
  2  3  2  0
  3  4  1  0
  3  5  1  0
  5  6  2  0
  6  7  1  0
  7  8  1  0
  8  9  2  0
  9 10  1  0
 10 11  2  0
 11  2  1  0
 10  6  1  0
M  END

