
     RDKit          3D

  3  2  0  0  0  0  0  0  0  0999 V2000
    1.3916   -0.1677   -0.3047 C   0  0  0  0  0  0  0  0  0  0  0  0
    0.3466    0.2526    1.1383 S   0  0  0  0  0  0  0  0  0  0  0  0
   -1.3782    0.2025    0.5386 C   0  0  0  0  0  0  0  0  0  0  0  0
  1  2  1  0
  2  3  1  0
M  END

