
     RDKit          3D

 11 11  0  0  0  0  0  0  0  0999 V2000
    2.5188    0.0823   -0.3874 C   0  0  0  0  0  0  0  0  0  0  0  0
    1.5392   -1.0464   -0.3917 C   0  0  0  0  0  0  0  0  0  0  0  0
    0.1315   -0.6053   -0.4192 C   0  0  0  0  0  0  0  0  0  0  0  0
   -0.5403   -0.3896    0.7508 C   0  0  0  0  0  0  0  0  0  0  0  0
   -1.8713    0.0276    0.7606 C   0  0  0  0  0  0  0  0  0  0  0  0
   -2.5603    0.2384   -0.4153 C   0  0  0  0  0  0  0  0  0  0  0  0
   -3.8841    0.6535   -0.3858 O   0  0  0  0  0  0  0  0  0  0  0  0
   -1.8796    0.0199   -1.5948 C   0  0  0  0  0  0  0  0  0  0  0  0
   -0.5633   -0.3927   -1.6014 C   0  0  0  0  0  0  0  0  0  0  0  0
   -2.5646    0.2501    1.9432 O   0  0  0  0  0  0  0  0  0  0  0  0
    2.3100    0.9165    0.7824 N   0  0  0  0  0  4  0  0  0  0  0  0
  1  2  1  0
  2  3  1  0
  3  4  2  0
  4  5  1  0
  5  6  2  0
  6  7  1  0
  6  8  1  0
  8  9  2  0
  5 10  1  0
  1 11  1  0
  9  3  1  0
M  CHG  1  11   1
M  END

