
     RDKit          3D

 39 43  0  0  0  0  0  0  0  0999 V2000
   -5.5255   -0.9878    2.2526 C   0  0  0  0  0  0  0  0  0  0  0  0
   -4.4826   -1.4844    1.3104 C   0  0  1  0  0  0  0  0  0  0  0  0
   -4.8420   -2.8119    0.6649 C   0  0  1  0  0  0  0  0  0  0  0  0
   -6.2121   -2.9010    0.4034 O   0  0  0  0  0  0  0  0  0  0  0  0
   -4.0035   -2.9454   -0.5691 C   0  0  1  0  0  0  0  0  0  0  0  0
   -4.6077   -2.3957   -1.7532 N   0  0  0  0  0  4  0  0  0  0  0  0
   -2.6399   -2.3100   -0.2623 C   0  0  0  0  0  0  0  0  0  0  0  0
   -2.8226   -0.8601   -0.1637 C   0  0  1  0  0  0  0  0  0  0  0  0
   -4.1006   -0.5454    0.3627 O   0  0  0  0  0  0  0  0  0  0  0  0
   -1.8392   -0.0996    0.4520 O   0  0  0  0  0  0  0  0  0  0  0  0
   -1.2844    0.8447   -0.3165 C   0  0  1  0  0  0  0  0  0  0  0  0
   -1.7004    2.2267    0.1829 C   0  0  0  0  0  0  0  0  0  0  0  0
   -0.8326    3.3477   -0.3039 C   0  0  2  0  0  0  0  0  0  0  0  0
    0.2364    3.5889    0.5676 O   0  0  0  0  0  0  0  0  0  0  0  0
   -1.6319    4.5557   -0.5000 C   0  0  0  0  0  0  0  0  0  0  0  0
   -2.6017    4.5339   -1.2278 O   0  0  0  0  0  0  0  0  0  0  0  0
   -1.2757    5.8160    0.1797 C   0  0  0  0  0  0  0  0  0  0  0  0
   -0.1442    5.6619    0.9729 O   0  0  0  0  0  0  0  0  0  0  0  0
   -0.1619    2.8992   -1.6147 C   0  0  0  0  0  0  0  0  0  0  0  0
    0.7786    1.8412   -1.1696 C   0  0  0  0  0  0  0  0  0  0  0  0
    0.1833    0.7814   -0.4528 C   0  0  0  0  0  0  0  0  0  0  0  0
    0.9596   -0.2017    0.0269 C   0  0  0  0  0  0  0  0  0  0  0  0
    2.3571   -0.1552   -0.2005 C   0  0  0  0  0  0  0  0  0  0  0  0
    3.2280   -1.2217    0.3131 C   0  0  0  0  0  0  0  0  0  0  0  0
    2.7465   -2.1704    0.9498 O   0  0  0  0  0  0  0  0  0  0  0  0
    4.6716   -1.1965    0.0914 C   0  0  0  0  0  0  0  0  0  0  0  0
    5.5110   -2.1852    0.5631 C   0  0  0  0  0  0  0  0  0  0  0  0
    4.9267   -3.2219    1.2670 O   0  0  0  0  0  0  0  0  0  0  0  0
    5.7747   -4.2640    1.7693 C   0  0  0  0  0  0  0  0  0  0  0  0
    6.8810   -2.1428    0.3419 C   0  0  0  0  0  0  0  0  0  0  0  0
    7.4485   -1.1000   -0.3634 C   0  0  0  0  0  0  0  0  0  0  0  0
    6.6046   -0.1124   -0.8338 C   0  0  0  0  0  0  0  0  0  0  0  0
    5.2388   -0.1541   -0.6136 C   0  0  0  0  0  0  0  0  0  0  0  0
    4.3496    0.9019   -1.1183 C   0  0  0  0  0  0  0  0  0  0  0  0
    4.8399    1.8537   -1.7581 O   0  0  0  0  0  0  0  0  0  0  0  0
    2.9097    0.8778   -0.8979 C   0  0  0  0  0  0  0  0  0  0  0  0
    2.0877    1.9012   -1.3923 C   0  0  0  0  0  0  0  0  0  0  0  0
    2.7393    2.9160   -2.0919 O   0  0  0  0  0  0  0  0  0  0  0  0
    0.5276   -1.2962    0.7527 O   0  0  0  0  0  0  0  0  0  0  0  0
  2  1  1  6
  2  3  1  0
  3  4  1  6
  3  5  1  0
  5  6  1  6
  5  7  1  0
  7  8  1  0
  8  9  1  0
  8 10  1  1
 11 10  1  1
 11 12  1  0
 12 13  1  0
 13 14  1  1
 13 15  1  0
 15 16  2  0
 15 17  1  0
 17 18  1  0
 13 19  1  0
 19 20  1  0
 20 21  2  0
 21 22  1  0
 22 23  2  0
 23 24  1  0
 24 25  2  0
 24 26  1  0
 26 27  2  0
 27 28  1  0
 28 29  1  0
 27 30  1  0
 30 31  2  0
 31 32  1  0
 32 33  2  0
 33 34  1  0
 34 35  2  0
 34 36  1  0
 36 37  2  0
 37 38  1  0
 22 39  1  0
  9  2  1  0
 21 11  1  0
 37 20  1  0
 36 23  1  0
 33 26  1  0
M  CHG  1   6   1
M  END

