
     RDKit          3D

 44 46  0  0  0  0  0  0  0  0999 V2000
    2.2250   -0.1283   -3.7654 C   0  0  0  0  0  0  0  0  0  0  0  0
    3.2386    0.3207   -2.7221 C   0  0  0  0  0  0  0  0  0  0  0  0
    3.7275    1.6870   -3.0717 C   0  0  0  0  0  0  0  0  0  0  0  0
    2.6092    0.3196   -1.3608 C   0  0  0  0  0  0  0  0  0  0  0  0
    1.5155    1.2070   -1.4066 O   0  0  0  0  0  0  0  0  0  0  0  0
    0.8014    1.2249    0.1050 P   0  0  0  0  0  5  0  0  0  0  0  0
    0.6070    2.8388    0.5789 O   0  0  0  0  0  1  0  0  0  0  0  0
    1.6343    0.5365    1.1610 O   0  0  0  0  0  0  0  0  0  0  0  0
   -0.6851    0.4313    0.0270 O   0  0  0  0  0  0  0  0  0  0  0  0
   -1.9707    1.4795    0.3176 P   0  0  0  0  0  5  0  0  0  0  0  0
   -3.3221    0.8793   -0.5053 O   0  0  0  0  0  0  0  0  0  0  0  0
   -4.1403    0.2635    0.4140 C   0  0  0  0  0  0  0  0  0  0  0  0
   -5.3769   -0.2977   -0.2621 C   0  0  1  0  0  0  0  0  0  0  0  0
   -6.1965   -0.9102    0.6385 O   0  0  0  0  0  0  0  0  0  0  0  0
   -7.5084   -0.6363    0.2913 C   0  0  1  0  0  0  0  0  0  0  0  0
   -8.2450   -0.4738    1.5387 N   0  0  0  0  0  0  0  0  0  0  0  0
   -9.5580   -0.7627    1.7045 C   0  0  0  0  0  0  0  0  0  0  0  0
   -9.8716   -0.4696    3.0292 C   0  0  0  0  0  0  0  0  0  0  0  0
   -8.7234   -0.0186    3.5878 N   0  0  0  0  0  0  0  0  0  0  0  0
   -7.7402   -0.0216    2.6852 C   0  0  0  0  0  0  0  0  0  0  0  0
  -11.1556   -0.6685    3.4870 C   0  0  0  0  0  0  0  0  0  0  0  0
  -11.4162   -0.3533    4.8424 N   0  0  0  0  0  0  0  0  0  0  0  0
  -12.1012   -1.1398    2.6715 N   0  0  0  0  0  0  0  0  0  0  0  0
  -11.8042   -1.4269    1.3834 C   0  0  0  0  0  0  0  0  0  0  0  0
  -10.5476   -1.2307    0.9404 N   0  0  0  0  0  0  0  0  0  0  0  0
   -7.5248    0.6501   -0.4486 C   0  0  2  0  0  0  0  0  0  0  0  0
   -8.4121    0.5695   -1.5250 O   0  0  0  0  0  0  0  0  0  0  0  0
   -6.1160    0.8102   -0.9421 C   0  0  2  0  0  0  0  0  0  0  0  0
   -6.0277    0.6700   -2.3297 O   0  0  0  0  0  0  0  0  0  0  0  0
   -2.2775    1.5902    1.7953 O   0  0  0  0  0  0  0  0  0  0  0  0
   -1.5062    3.0055   -0.2796 O   0  0  0  0  0  1  0  0  0  0  0  0
    4.3301   -0.7416   -2.7494 C   0  0  1  0  0  0  0  0  0  0  0  0
    4.8197   -0.7104   -4.0730 O   0  0  0  0  0  0  0  0  0  0  0  0
    5.3944   -0.4660   -1.7783 C   0  0  0  0  0  0  0  0  0  0  0  0
    5.1915   -0.5050   -0.5468 O   0  0  0  0  0  0  0  0  0  0  0  0
    6.6826   -0.1487   -2.2824 N   0  0  0  0  0  0  0  0  0  0  0  0
    7.7479    0.1240   -1.3482 C   0  0  0  0  0  0  0  0  0  0  0  0
    8.0348   -1.0342   -0.4434 C   0  0  0  0  0  0  0  0  0  0  0  0
    9.1648   -0.6330    0.4832 C   0  0  0  0  0  0  0  0  0  0  0  0
    9.6092    0.5107    0.3271 O   0  0  0  0  0  0  0  0  0  0  0  0
    9.5709   -1.5997    1.4028 N   0  0  0  0  0  0  0  0  0  0  0  0
   10.5978   -1.4733    2.3854 C   0  0  0  0  0  0  0  0  0  0  0  0
   10.3849   -0.4524    3.4366 C   0  0  0  0  0  0  0  0  0  0  0  0
   10.2602    1.2161    2.8282 S   0  0  0  0  0  0  0  0  0  0  0  0
  1  2  1  0
  2  3  1  0
  2  4  1  0
  4  5  1  0
  5  6  1  0
  6  7  1  0
  6  8  2  0
  6  9  1  0
  9 10  1  0
 10 11  1  0
 11 12  1  0
 13 12  1  1
 13 14  1  0
 14 15  1  0
 15 16  1  1
 16 17  1  0
 17 18  2  0
 18 19  1  0
 19 20  2  0
 18 21  1  0
 21 22  1  0
 21 23  2  0
 23 24  1  0
 24 25  2  0
 15 26  1  0
 26 27  1  6
 26 28  1  0
 28 29  1  6
 10 30  2  0
 10 31  1  0
  2 32  1  0
 32 33  1  6
 32 34  1  0
 34 35  2  0
 34 36  1  0
 36 37  1  0
 37 38  1  0
 38 39  1  0
 39 40  2  0
 39 41  1  0
 41 42  1  0
 42 43  1  0
 43 44  1  0
 20 16  1  0
 25 17  1  0
 28 13  1  0
M  CHG  2   7  -1  31  -1
M  END

