
     RDKit          3D

 35 37  0  0  0  0  0  0  0  0999 V2000
    8.5584   -2.2035   -0.6742 C   0  0  0  0  0  0  0  0  0  0  0  0
    7.5513   -1.1138   -0.5860 C   0  0  0  0  0  0  0  0  0  0  0  0
    8.0108    0.1854   -0.5947 C   0  0  0  0  0  0  0  0  0  0  0  0
    9.2354    0.4719   -0.6737 O   0  0  0  0  0  0  0  0  0  0  0  0
    7.0778    1.1562   -0.5137 N   0  0  0  0  0  0  0  0  0  0  0  0
    5.7581    0.8862   -0.4278 C   0  0  0  0  0  0  0  0  0  0  0  0
    5.2835   -0.3759   -0.4174 N   0  0  0  0  0  0  0  0  0  0  0  0
    6.1914   -1.3637   -0.4970 C   0  0  0  0  0  0  0  0  0  0  0  0
    3.9011   -0.7228   -0.3287 C   0  0  1  0  0  0  0  0  0  0  0  0
    3.5607   -1.3911    1.0056 C   0  0  0  0  0  0  0  0  0  0  0  0
    2.0499   -1.2917    0.9833 C   0  0  2  0  0  0  0  0  0  0  0  0
    1.5720   -2.4709    0.4026 O   0  0  0  0  0  0  0  0  0  0  0  0
    1.8177   -0.1329    0.0515 C   0  0  1  0  0  0  0  0  0  0  0  0
    1.0008    0.8962    0.8022 C   0  0  0  0  0  0  0  0  0  0  0  0
    0.7750    2.0284    0.0220 O   0  0  0  0  0  0  0  0  0  0  0  0
   -0.1283    3.1871    0.8282 P   0  0  0  0  0  5  0  0  0  0  0  0
    0.0337    3.0788    2.3243 O   0  0  0  0  0  0  0  0  0  0  0  0
    0.5032    4.7145    0.3882 O   0  0  0  0  0  1  0  0  0  0  0  0
   -1.7352    3.1614    0.3488 O   0  0  0  0  0  0  0  0  0  0  0  0
   -1.9726    2.4406   -1.1389 P   0  0  0  0  0  5  0  0  0  0  0  0
   -2.5302    0.8494   -1.0086 O   0  0  0  0  0  0  0  0  0  0  0  0
   -3.8794    0.8078   -0.6731 C   0  0  2  0  0  0  0  0  0  0  0  0
   -4.1167    0.1451    0.6517 C   0  0  1  0  0  0  0  0  0  0  0  0
   -4.7961   -1.1911    0.5425 C   0  0  2  0  0  0  0  0  0  0  0  0
   -6.0527   -1.0825   -0.2932 C   0  0  1  0  0  0  0  0  0  0  0  0
   -7.2135   -0.8673    0.5467 N   0  0  0  0  0  4  0  0  0  0  0  0
   -5.9143    0.0150   -1.3351 C   0  0  2  0  0  0  0  0  0  0  0  0
   -4.6032    0.2332   -1.6888 O   0  0  0  0  0  0  0  0  0  0  0  0
   -6.6401    1.2546   -0.9169 C   0  0  0  0  0  0  0  0  0  0  0  0
   -5.1054   -1.6019    1.8456 O   0  0  0  0  0  0  0  0  0  0  0  0
   -2.8543   -0.0620    1.2368 O   0  0  0  0  0  0  0  0  0  0  0  0
   -2.9576    3.3056   -1.9256 O   0  0  0  0  0  0  0  0  0  0  0  0
   -0.5158    2.4775   -1.9968 O   0  0  0  0  0  1  0  0  0  0  0  0
    3.0513    0.3546   -0.3238 O   0  0  0  0  0  0  0  0  0  0  0  0
    4.8996    1.8164   -0.3526 O   0  0  0  0  0  0  0  0  0  0  0  0
  1  2  1  0
  2  3  1  0
  3  4  2  0
  3  5  1  0
  5  6  1  0
  6  7  1  0
  7  8  1  0
  9  7  1  1
  9 10  1  0
 10 11  1  0
 11 12  1  6
 11 13  1  0
 13 14  1  1
 14 15  1  0
 15 16  1  0
 16 17  2  0
 16 18  1  0
 16 19  1  0
 19 20  1  0
 20 21  1  0
 22 21  1  6
 22 23  1  0
 23 24  1  0
 24 25  1  0
 25 26  1  1
 25 27  1  0
 27 28  1  0
 27 29  1  1
 24 30  1  1
 23 31  1  6
 20 32  2  0
 20 33  1  0
 13 34  1  0
  6 35  2  0
  8  2  2  0
 28 22  1  0
 34  9  1  0
M  CHG  3  18  -1  26   1  33  -1
M  END

