
     RDKit          3D

 38 40  0  0  0  0  0  0  0  0999 V2000
    9.1831    0.3032    0.2807 C   0  0  0  0  0  0  0  0  0  0  0  0
    7.8817    0.9035   -0.0507 C   0  0  0  0  0  0  0  0  0  0  0  0
    7.7215    2.2233   -0.3294 C   0  0  0  0  0  0  0  0  0  0  0  0
    8.6981    2.9742   -0.3090 O   0  0  0  0  0  0  0  0  0  0  0  0
    6.4945    2.7377   -0.6307 N   0  0  0  0  0  0  0  0  0  0  0  0
    5.4384    1.9002   -0.6423 C   0  0  0  0  0  0  0  0  0  0  0  0
    5.5785    0.6145   -0.3717 N   0  0  0  0  0  0  0  0  0  0  0  0
    6.7634    0.0822   -0.0784 C   0  0  0  0  0  0  0  0  0  0  0  0
    4.4406   -0.2649   -0.3474 C   0  0  1  0  0  0  0  0  0  0  0  0
    4.7753   -1.6196   -0.8999 C   0  0  0  0  0  0  0  0  0  0  0  0
    4.4537   -2.5251    0.3026 C   0  0  2  0  0  0  0  0  0  0  0  0
    3.8818   -3.7202   -0.1347 O   0  0  0  0  0  0  0  0  0  0  0  0
    3.4437   -1.6171    0.9470 C   0  0  1  0  0  0  0  0  0  0  0  0
    2.5995   -2.1394    2.0233 C   0  0  0  0  0  0  0  0  0  0  0  0
    1.5566   -1.1432    2.2411 O   0  0  0  0  0  0  0  0  0  0  0  0
    0.1611   -1.7992    1.6624 P   0  0  0  0  0  5  0  0  0  0  0  0
    0.4049   -3.1049    0.9060 O   0  0  0  0  0  0  0  0  0  0  0  0
   -0.3499   -0.6672    0.4115 O   0  0  0  0  0  1  0  0  0  0  0  0
   -1.1570   -2.0024    2.6443 O   0  0  0  0  0  0  0  0  0  0  0  0
   -2.4880   -2.0339    1.5172 P   0  0  0  0  0  5  0  0  0  0  0  0
   -2.5158   -0.4525    0.8934 O   0  0  0  0  0  0  0  0  0  0  0  0
   -3.8148   -0.0715    0.5900 C   0  0  1  0  0  0  0  0  0  0  0  0
   -4.0313    1.2264    0.8732 O   0  0  0  0  0  0  0  0  0  0  0  0
   -4.3482    2.0236   -0.2067 C   0  0  2  0  0  0  0  0  0  0  0  0
   -4.3637    3.4617    0.2271 C   0  0  0  0  0  0  0  0  0  0  0  0
   -5.5288    1.5316   -0.9563 C   0  0  2  0  0  0  0  0  0  0  0  0
   -6.7768    1.6033   -0.3160 N   0  0  0  0  0  0  0  0  0  0  0  0
   -7.5620    0.6595    0.3471 C   0  0  0  0  0  0  0  0  0  0  0  0
   -7.2761   -0.5270    0.5569 O   0  0  0  0  0  0  0  0  0  0  0  0
   -8.9251    1.0541    0.8954 C   0  0  0  0  0  0  0  0  0  0  0  0
   -5.1774    0.1631   -1.5260 C   0  0  2  0  0  0  0  0  0  0  0  0
   -6.2729   -0.6713   -1.6863 O   0  0  0  0  0  0  0  0  0  0  0  0
   -4.0132   -0.4629   -0.8629 C   0  0  1  0  0  0  0  0  0  0  0  0
   -2.8486   -0.2972   -1.6300 O   0  0  0  0  0  0  0  0  0  0  0  0
   -3.7244   -2.5443    2.0632 O   0  0  0  0  0  0  0  0  0  0  0  0
   -1.9215   -3.0175    0.2239 O   0  0  0  0  0  1  0  0  0  0  0  0
    4.1300   -0.4607    1.0484 O   0  0  0  0  0  0  0  0  0  0  0  0
    4.2812    2.3713   -0.9204 O   0  0  0  0  0  0  0  0  0  0  0  0
  1  2  1  0
  2  3  1  0
  3  4  2  0
  3  5  1  0
  5  6  1  0
  6  7  1  0
  7  8  1  0
  9  7  1  1
  9 10  1  0
 10 11  1  0
 11 12  1  6
 11 13  1  0
 13 14  1  1
 14 15  1  0
 15 16  1  0
 16 17  2  0
 16 18  1  0
 16 19  1  0
 19 20  1  0
 20 21  1  0
 22 21  1  6
 22 23  1  0
 23 24  1  0
 24 25  1  1
 24 26  1  0
 26 27  1  1
 27 28  1  0
 28 29  2  0
 28 30  1  0
 26 31  1  0
 31 32  1  1
 31 33  1  0
 33 34  1  6
 20 35  2  0
 20 36  1  0
 13 37  1  0
  6 38  2  0
  8  2  2  0
 33 22  1  0
 37  9  1  0
M  CHG  2  18  -1  36  -1
M  END

