
     RDKit          3D

 35 37  0  0  0  0  0  0  0  0999 V2000
    6.5164    1.6638   -2.6971 C   0  0  0  0  0  0  0  0  0  0  0  0
    6.8252    0.9411   -1.4408 C   0  0  0  0  0  0  0  0  0  0  0  0
    8.1040    0.9115   -0.9179 C   0  0  0  0  0  0  0  0  0  0  0  0
    8.9933    1.5255   -1.5566 O   0  0  0  0  0  0  0  0  0  0  0  0
    8.3749    0.2452    0.2352 N   0  0  0  0  0  0  0  0  0  0  0  0
    7.4053   -0.4061    0.9029 C   0  0  0  0  0  0  0  0  0  0  0  0
    6.1567   -0.3838    0.4028 N   0  0  0  0  0  0  0  0  0  0  0  0
    5.8428    0.2681   -0.7436 C   0  0  0  0  0  0  0  0  0  0  0  0
    5.1458   -1.1083    1.1707 C   0  0  1  0  0  0  0  0  0  0  0  0
    4.9513   -0.3580    2.4584 C   0  0  0  0  0  0  0  0  0  0  0  0
    3.6153    0.3239    2.2025 C   0  0  2  0  0  0  0  0  0  0  0  0
    2.9269    0.5691    3.3766 O   0  0  0  0  0  0  0  0  0  0  0  0
    2.9456   -0.7485    1.3526 C   0  0  1  0  0  0  0  0  0  0  0  0
    1.7679   -0.1623    0.5914 C   0  0  0  0  0  0  0  0  0  0  0  0
    1.2600   -1.1705   -0.2282 O   0  0  0  0  0  0  0  0  0  0  0  0
   -0.0590   -0.6406   -1.1300 P   0  0  0  0  0  5  0  0  0  0  0  0
   -0.5301    0.7259   -0.7278 O   0  0  0  0  0  0  0  0  0  0  0  0
    0.3845   -0.5978   -2.7808 O   0  0  0  0  0  1  0  0  0  0  0  0
   -1.3395   -1.7500   -0.9960 O   0  0  0  0  0  0  0  0  0  0  0  0
   -2.8189   -1.0503   -1.3858 P   0  0  0  0  0  5  0  0  0  0  0  0
   -3.6652   -0.5772   -0.0067 O   0  0  0  0  0  0  0  0  0  0  0  0
   -4.9736   -0.2863   -0.3655 C   0  0  1  0  0  0  0  0  0  0  0  0
   -5.8429   -1.2152    0.2424 O   0  0  0  0  0  0  0  0  0  0  0  0
   -7.1159   -0.9589   -0.2575 C   0  0  1  0  0  0  0  0  0  0  0  0
   -8.0685   -2.0774    0.1078 C   0  0  0  0  0  0  0  0  0  0  0  0
   -7.6678    0.3503    0.2953 C   0  0  2  0  0  0  0  0  0  0  0  0
   -8.0304    1.1938   -0.7655 O   0  0  0  0  0  0  0  0  0  0  0  0
   -6.5165    1.0503    1.0104 C   0  0  1  0  0  0  0  0  0  0  0  0
   -6.1680    0.2201    2.0812 O   0  0  0  0  0  0  0  0  0  0  0  0
   -5.3728    1.1168    0.0420 C   0  0  1  0  0  0  0  0  0  0  0  0
   -4.2965    1.8525    0.5060 O   0  0  0  0  0  0  0  0  0  0  0  0
   -2.6383    0.1634   -2.2686 O   0  0  0  0  0  0  0  0  0  0  0  0
   -3.6968   -2.1935   -2.2827 O   0  0  0  0  0  1  0  0  0  0  0  0
    3.9408   -1.1938    0.5291 O   0  0  0  0  0  0  0  0  0  0  0  0
    7.6892   -1.0202    1.9784 O   0  0  0  0  0  0  0  0  0  0  0  0
  1  2  1  0
  2  3  1  0
  3  4  2  0
  3  5  1  0
  5  6  1  0
  6  7  1  0
  7  8  1  0
  9  7  1  6
  9 10  1  0
 10 11  1  0
 11 12  1  1
 11 13  1  0
 13 14  1  6
 14 15  1  0
 15 16  1  0
 16 17  2  0
 16 18  1  0
 16 19  1  0
 19 20  1  0
 20 21  1  0
 22 21  1  1
 22 23  1  0
 23 24  1  0
 24 25  1  1
 24 26  1  0
 26 27  1  6
 26 28  1  0
 28 29  1  1
 28 30  1  0
 30 31  1  1
 20 32  2  0
 20 33  1  0
 13 34  1  0
  6 35  2  0
  8  2  2  0
 30 22  1  0
 34  9  1  0
M  CHG  2  18  -1  33  -1
M  END

