
     RDKit          3D

 29 30  0  0  0  0  0  0  0  0999 V2000
   -6.1068   -2.2250    0.3988 C   0  0  0  0  0  0  0  0  0  0  0  0
   -5.1478   -1.1815    0.7191 C   0  0  0  0  0  0  0  0  0  0  0  0
   -5.4397   -0.0487    1.4948 C   0  0  0  0  0  0  0  0  0  0  0  0
   -6.6666   -0.0370    1.9140 O   0  0  0  0  0  0  0  0  0  0  0  0
   -4.6680    0.9077    1.8358 N   0  0  0  0  0  0  0  0  0  0  0  0
   -3.3558    0.8325    1.3525 C   0  0  0  0  0  0  0  0  0  0  0  0
   -2.9891   -0.2114    0.5923 N   0  0  0  0  0  0  0  0  0  0  0  0
   -3.7872   -1.1968    0.2590 C   0  0  0  0  0  0  0  0  0  0  0  0
   -1.6545   -0.0777   -0.0024 C   0  0  1  0  0  0  0  0  0  0  0  0
   -1.7639    1.2566   -0.8598 C   0  0  0  0  0  0  0  0  0  0  0  0
   -0.5545    2.0644   -0.3414 C   0  0  2  0  0  0  0  0  0  0  0  0
   -0.0273    2.7754   -1.4420 O   0  0  0  0  0  0  0  0  0  0  0  0
    0.2851    0.9279    0.1370 C   0  0  1  0  0  0  0  0  0  0  0  0
    1.6003    1.1266    0.6979 C   0  0  0  0  0  0  0  0  0  0  0  0
    2.0045   -0.2919    0.7462 O   0  0  0  0  0  0  0  0  0  0  0  0
    3.4366   -0.4006   -0.0873 P   0  0  0  0  0  5  0  0  0  0  0  0
    3.0212   -1.0474   -1.5117 O   0  0  0  0  0  0  0  0  0  0  0  0
    4.1639    1.0740   -0.4245 O   0  0  0  0  0  1  0  0  0  0  0  0
    4.5095   -1.5137    0.4964 O   0  0  0  0  0  0  0  0  0  0  0  0
    5.7130   -1.6154   -0.7459 P   0  0  0  0  0  5  0  0  0  0  0  0
    6.5631   -2.8215   -0.6027 O   0  0  0  0  0  0  0  0  0  0  0  0
    4.9613   -1.5954   -2.2696 O   0  0  0  0  0  1  0  0  0  0  0  0
    6.6292   -0.1714   -0.5431 O   0  0  0  0  0  0  0  0  0  0  0  0
    7.7147   -0.5118    0.7239 P   0  0  0  0  0  5  0  0  0  0  0  0
    7.4993    0.3458    1.9133 O   0  0  0  0  0  0  0  0  0  0  0  0
    9.2876   -0.2617    0.1077 O   0  0  0  0  0  1  0  0  0  0  0  0
    7.5704   -2.1392    1.2367 O   0  0  0  0  0  1  0  0  0  0  0  0
   -0.6155    0.1404    0.8707 O   0  0  0  0  0  0  0  0  0  0  0  0
   -2.5627    1.7410    1.6520 O   0  0  0  0  0  0  0  0  0  0  0  0
  1  2  1  0
  2  3  1  0
  3  4  2  0
  3  5  1  0
  5  6  1  0
  6  7  1  0
  7  8  1  0
  9  7  1  1
  9 10  1  0
 10 11  1  0
 11 12  1  6
 11 13  1  0
 13 14  1  1
 14 15  1  0
 15 16  1  0
 16 17  2  0
 16 18  1  0
 16 19  1  0
 19 20  1  0
 20 21  2  0
 20 22  1  0
 20 23  1  0
 23 24  1  0
 24 25  2  0
 24 26  1  0
 24 27  1  0
 13 28  1  0
  6 29  2  0
  8  2  2  0
 28  9  1  0
M  CHG  4  18  -1  22  -1  26  -1  27  -1
M  END

