
     RDKit          3D

 12 11  0  0  0  0  0  0  0  0999 V2000
   -2.3772    1.3053    0.4689 C   0  0  0  0  0  0  0  0  0  0  0  0
   -1.8241    0.0849   -0.2456 C   0  0  1  0  0  0  0  0  0  0  0  0
   -0.4148    0.2425   -0.4649 C   0  0  1  0  0  0  0  0  0  0  0  0
    0.5547   -0.6488    0.3689 C   0  0  0  0  0  0  0  0  0  0  0  0
    1.5779    0.1983    0.7369 O   0  0  0  0  0  0  0  0  0  0  0  0
    3.0967   -0.2141    0.3120 P   0  0  0  0  0  5  0  0  0  0  0  0
    3.0702   -1.1098   -1.1742 O   0  0  0  0  0  1  0  0  0  0  0  0
    3.8415    1.3080   -0.1239 O   0  0  0  0  0  1  0  0  0  0  0  0
    3.9501   -0.8715    1.2694 O   0  0  0  0  0  0  0  0  0  0  0  0
    0.0608    0.2811   -1.7845 O   0  0  0  0  0  0  0  0  0  0  0  0
   -1.9972   -1.0464    0.6158 O   0  0  0  0  0  0  0  0  0  0  0  0
   -3.4856    1.7040    0.1312 O   0  0  0  0  0  0  0  0  0  0  0  0
  1  2  1  0
  2  3  1  0
  3  4  1  0
  4  5  1  0
  5  6  1  0
  6  7  1  0
  6  8  1  0
  6  9  2  0
  3 10  1  6
  2 11  1  1
  1 12  2  0
M  CHG  2   7  -1   8  -1
M  END

