
     RDKit          3D

 48 51  0  0  0  0  0  0  0  0999 V2000
    2.1533    0.3084   -0.0879 C   0  0  0  0  0  0  0  0  0  0  0  0
    2.4569   -1.0098    0.5504 C   0  0  2  0  0  0  0  0  0  0  0  0
    3.3872   -1.8162   -0.2055 N   0  0  0  0  0  0  0  0  0  0  0  0
    4.6025   -2.2034    0.3813 C   0  0  0  0  0  0  0  0  0  0  0  0
    4.9126   -1.8698    1.5546 O   0  0  0  0  0  0  0  0  0  0  0  0
    5.5505   -3.0139   -0.3658 C   0  0  0  0  0  0  0  0  0  0  0  0
    6.7612   -3.3917    0.2393 C   0  0  0  0  0  0  0  0  0  0  0  0
    7.0084   -2.9744    1.5421 O   0  0  0  0  0  0  0  0  0  0  0  0
    7.6825   -4.1507   -0.4247 C   0  0  0  0  0  0  0  0  0  0  0  0
    7.4575   -4.5709   -1.7068 C   0  0  0  0  0  0  0  0  0  0  0  0
    6.3008   -4.2332   -2.3407 C   0  0  0  0  0  0  0  0  0  0  0  0
    5.3694   -3.4552   -1.6443 C   0  0  0  0  0  0  0  0  0  0  0  0
    8.8556   -4.4779    0.2548 O   0  0  0  0  0  0  0  0  0  0  0  0
    1.1548   -1.7645    0.7916 C   0  0  0  0  0  0  0  0  0  0  0  0
    0.1140   -1.4116    0.0771 O   0  0  0  0  0  0  0  0  0  0  0  0
   -1.0863   -1.6977   -0.4426 C   0  0  0  0  0  0  0  0  0  0  0  0
   -2.1614   -1.5394    0.6335 C   0  0  1  0  0  0  0  0  0  0  0  0
   -1.8962   -0.3474    1.4788 C   0  0  0  0  0  0  0  0  0  0  0  0
   -2.2052    0.9283    1.1361 O   0  0  0  0  0  0  0  0  0  0  0  0
   -1.8767    1.6382   -0.0344 C   0  0  0  0  0  0  0  0  0  0  0  0
   -0.4245    2.0280   -0.0901 C   0  0  1  0  0  0  0  0  0  0  0  0
    0.2069    1.3296   -1.2371 C   0  0  0  0  0  0  0  0  0  0  0  0
   -0.0566    1.7550   -2.3932 O   0  0  0  0  0  0  0  0  0  0  0  0
    1.0411    0.2603   -0.9613 O   0  0  0  0  0  0  0  0  0  0  0  0
   -0.3617    3.4818   -0.2672 N   0  0  0  0  0  0  0  0  0  0  0  0
    0.1952    4.3252    0.7182 C   0  0  0  0  0  0  0  0  0  0  0  0
    0.6297    3.7746    1.7487 O   0  0  0  0  0  0  0  0  0  0  0  0
    0.2633    5.7543    0.5526 C   0  0  0  0  0  0  0  0  0  0  0  0
    0.8072    6.5978    1.5169 C   0  0  0  0  0  0  0  0  0  0  0  0
    1.3103    6.1454    2.6875 O   0  0  0  0  0  0  0  0  0  0  0  0
    0.8621    7.9963    1.3184 C   0  0  0  0  0  0  0  0  0  0  0  0
    0.3657    8.5092    0.1494 C   0  0  0  0  0  0  0  0  0  0  0  0
   -0.1702    7.6679   -0.7982 C   0  0  0  0  0  0  0  0  0  0  0  0
   -0.2326    6.3208   -0.6273 C   0  0  0  0  0  0  0  0  0  0  0  0
    1.4134    8.8307    2.3002 O   0  0  0  0  0  0  0  0  0  0  0  0
   -1.3414   -0.5705    2.5920 O   0  0  0  0  0  0  0  0  0  0  0  0
   -3.4923   -1.5443    0.0851 N   0  0  0  0  0  0  0  0  0  0  0  0
   -4.4109   -2.6060    0.3658 C   0  0  0  0  0  0  0  0  0  0  0  0
   -3.9824   -3.5346    1.1193 O   0  0  0  0  0  0  0  0  0  0  0  0
   -5.7565   -2.6192   -0.1806 C   0  0  0  0  0  0  0  0  0  0  0  0
   -6.2011   -1.5977   -0.9927 C   0  0  0  0  0  0  0  0  0  0  0  0
   -7.4745   -1.5984   -1.5117 C   0  0  0  0  0  0  0  0  0  0  0  0
   -8.3532   -2.6131   -1.2437 C   0  0  0  0  0  0  0  0  0  0  0  0
   -7.9551   -3.6489   -0.4420 C   0  0  0  0  0  0  0  0  0  0  0  0
   -6.6453   -3.6409    0.0874 C   0  0  0  0  0  0  0  0  0  0  0  0
   -6.3299   -4.7010    0.8700 O   0  0  0  0  0  0  0  0  0  0  0  0
   -8.7980   -4.7107   -0.1305 O   0  0  0  0  0  0  0  0  0  0  0  0
    1.2902   -2.6539    1.6865 O   0  0  0  0  0  0  0  0  0  0  0  0
  1  2  1  0
  2  3  1  6
  3  4  1  0
  4  5  2  0
  4  6  1  0
  6  7  2  0
  7  8  1  0
  7  9  1  0
  9 10  2  0
 10 11  1  0
 11 12  2  0
  9 13  1  0
  2 14  1  0
 14 15  1  0
 15 16  1  0
 16 17  1  0
 17 18  1  0
 18 19  1  0
 19 20  1  0
 20 21  1  0
 21 22  1  0
 22 23  2  0
 22 24  1  0
 21 25  1  6
 25 26  1  0
 26 27  2  0
 26 28  1  0
 28 29  2  0
 29 30  1  0
 29 31  1  0
 31 32  2  0
 32 33  1  0
 33 34  2  0
 31 35  1  0
 18 36  2  0
 17 37  1  6
 37 38  1  0
 38 39  2  0
 38 40  1  0
 40 41  2  0
 41 42  1  0
 42 43  2  0
 43 44  1  0
 44 45  2  0
 45 46  1  0
 44 47  1  0
 14 48  2  0
 12  6  1  0
 24  1  1  0
 34 28  1  0
 45 40  1  0
M  END

