
     RDKit          3D

  4  3  0  0  0  0  0  0  0  0999 V2000
    0.3006   -0.1757    0.6388 C   0  0  0  0  0  0  0  0  0  0  0  0
   -0.8806    0.6738    0.1614 C   0  0  0  0  0  0  0  0  0  0  0  0
   -1.5543    0.0625   -0.8763 O   0  0  0  0  0  0  0  0  0  0  0  0
    1.2209   -0.3690   -0.4594 N   0  0  0  0  0  4  0  0  0  0  0  0
  1  2  1  0
  2  3  1  0
  1  4  1  0
M  CHG  1   4   1
M  END

