
     RDKit          3D

 16 16  0  0  0  0  0  0  0  0999 V2000
   -2.9199    1.0836    0.2021 C   0  0  0  0  0  0  0  0  0  0  0  0
   -2.7828    2.1827    1.0295 O   0  0  0  0  0  0  0  0  0  0  0  0
   -1.5575    0.4968   -0.0249 C   0  0  2  0  0  0  0  0  0  0  0  0
   -1.6030   -1.0027   -0.2946 C   0  0  1  0  0  0  0  0  0  0  0  0
   -2.0567   -1.2863   -1.5719 O   0  0  0  0  0  0  0  0  0  0  0  0
   -0.1189   -1.3293   -0.1637 C   0  0  2  0  0  0  0  0  0  0  0  0
   -0.0152   -2.5517    0.4868 O   0  0  0  0  0  0  0  0  0  0  0  0
    0.3598   -0.2016    0.6960 C   0  0  0  0  0  0  0  0  0  0  0  0
    1.3202    0.7297    0.0181 C   0  0  0  0  0  0  0  0  0  0  0  0
    2.3017    0.0857   -0.7138 O   0  0  0  0  0  0  0  0  0  0  0  0
    3.8115    0.7206   -0.2596 P   0  0  0  0  0  5  0  0  0  0  0  0
    4.8918   -0.5662   -0.2090 O   0  0  0  0  0  1  0  0  0  0  0  0
    4.2963    1.9180   -1.3368 O   0  0  0  0  0  1  0  0  0  0  0  0
    3.6873    1.2812    1.1441 O   0  0  0  0  0  0  0  0  0  0  0  0
    1.0083   -0.7390    1.8052 O   0  0  0  0  0  0  0  0  0  0  0  0
   -0.7402    0.5373    1.0930 O   0  0  0  0  0  0  0  0  0  0  0  0
  1  2  1  0
  3  1  1  1
  3  4  1  0
  4  5  1  6
  4  6  1  0
  6  7  1  1
  6  8  1  0
  8  9  1  0
  9 10  1  0
 10 11  1  0
 11 12  1  0
 11 13  1  0
 11 14  2  0
  8 15  1  0
  8 16  1  0
 16  3  1  0
M  CHG  2  12  -1  13  -1
M  END

