
     RDKit          3D

 53 58  0  0  0  0  0  0  0  0999 V2000
   -9.9071    1.0359    2.7494 C   0  0  0  0  0  0  0  0  0  0  0  0
   -8.6162    0.8788    2.0337 C   0  0  0  0  0  0  0  0  0  0  0  0
   -8.5734    0.8756    0.6626 C   0  0  0  0  0  0  0  0  0  0  0  0
   -7.4113    0.7339   -0.0669 C   0  0  0  0  0  0  0  0  0  0  0  0
   -6.1927    0.5825    0.5985 C   0  0  0  0  0  0  0  0  0  0  0  0
   -4.9790    0.4477   -0.1215 N   0  0  0  0  0  0  0  0  0  0  0  0
   -5.0093    0.4706   -1.5432 C   0  0  0  0  0  0  0  0  0  0  0  0
   -3.9023    0.3454   -2.2982 N   0  0  0  0  0  0  0  0  0  0  0  0
   -3.9377    0.3637   -3.6422 C   0  0  0  0  0  0  0  0  0  0  0  0
   -5.1059    0.5107   -4.2855 N   0  0  0  0  0  0  0  0  0  0  0  0
   -6.2179    0.6366   -3.5679 C   0  0  0  0  0  0  0  0  0  0  0  0
   -7.3369    0.7771   -4.1657 O   0  0  0  0  0  0  0  0  0  0  0  0
   -6.2278    0.6234   -2.1979 C   0  0  0  0  0  0  0  0  0  0  0  0
   -7.4428    0.7565   -1.4850 N   0  0  0  0  0  0  0  0  0  0  0  0
   -2.8689    0.2427   -4.3324 O   0  0  0  0  0  0  0  0  0  0  0  0
   -3.7070    0.2266    0.5762 C   0  0  0  0  0  0  0  0  0  0  0  0
   -3.4503   -1.2351    0.7436 C   0  0  2  0  0  0  0  0  0  0  0  0
   -4.5840   -1.7611    1.4534 O   0  0  0  0  0  0  0  0  0  0  0  0
   -2.2393   -1.6425    1.4873 C   0  0  2  0  0  0  0  0  0  0  0  0
   -2.0777   -1.1932    2.7681 O   0  0  0  0  0  0  0  0  0  0  0  0
   -0.9446   -1.7396    0.7499 C   0  0  2  0  0  0  0  0  0  0  0  0
   -0.1223   -2.7388    1.3545 O   0  0  0  0  0  0  0  0  0  0  0  0
   -0.1920   -0.4155    0.8910 C   0  0  0  0  0  0  0  0  0  0  0  0
    1.0503   -0.5525    0.2496 O   0  0  0  0  0  0  0  0  0  0  0  0
    1.8552    0.9382    0.4289 P   0  0  0  0  0  5  0  0  0  0  0  0
    1.4005    1.9151   -0.8729 O   0  0  0  0  0  0  0  0  0  0  0  0
    2.1996    1.3613   -2.2480 P   0  0  0  0  0  5  0  0  0  0  0  0
    1.1766    0.3248   -3.1364 O   0  0  0  0  0  1  0  0  0  0  0  0
    3.5439    0.4777   -1.7711 O   0  0  0  0  0  0  0  0  0  0  0  0
    4.1569   -0.0730   -2.8965 C   0  0  0  0  0  0  0  0  0  0  0  0
    5.3774   -0.8814   -2.5096 C   0  0  2  0  0  0  0  0  0  0  0  0
    4.9817   -1.9771   -1.5318 C   0  0  1  0  0  0  0  0  0  0  0  0
    5.1411   -3.2040   -2.1690 O   0  0  0  0  0  0  0  0  0  0  0  0
    6.0444   -1.8145   -0.4402 C   0  0  1  0  0  0  0  0  0  0  0  0
    6.4865   -3.0616   -0.0487 O   0  0  0  0  0  0  0  0  0  0  0  0
    7.1006   -1.0316   -1.2051 C   0  0  2  0  0  0  0  0  0  0  0  0
    8.0481   -0.4544   -0.2977 N   0  0  0  0  0  0  0  0  0  0  0  0
    8.7144   -1.1603    0.6323 C   0  0  0  0  0  0  0  0  0  0  0  0
    9.5288   -0.3518    1.3300 N   0  0  0  0  0  0  0  0  0  0  0  0
    9.4014    0.8871    0.8623 C   0  0  0  0  0  0  0  0  0  0  0  0
    9.9966    2.0866    1.2122 C   0  0  0  0  0  0  0  0  0  0  0  0
   10.9490    2.1219    2.2669 N   0  0  0  0  0  0  0  0  0  0  0  0
    9.6245    3.1725    0.5112 N   0  0  0  0  0  0  0  0  0  0  0  0
    8.7092    3.0813   -0.4876 C   0  0  0  0  0  0  0  0  0  0  0  0
    8.1232    1.9338   -0.8410 N   0  0  0  0  0  0  0  0  0  0  0  0
    8.4644    0.8177   -0.1666 C   0  0  0  0  0  0  0  0  0  0  0  0
    6.3167   -0.0890   -1.8576 O   0  0  0  0  0  0  0  0  0  0  0  0
    2.5706    2.4994   -3.1724 O   0  0  0  0  0  0  0  0  0  0  0  0
    1.4304    1.6674    1.8971 O   0  0  0  0  0  1  0  0  0  0  0  0
    3.3655    0.7274    0.3855 O   0  0  0  0  0  0  0  0  0  0  0  0
   -6.2400    0.5874    1.9615 C   0  0  0  0  0  0  0  0  0  0  0  0
   -7.4189    0.7311    2.6948 C   0  0  0  0  0  0  0  0  0  0  0  0
   -7.4160    0.7289    4.1717 C   0  0  0  0  0  0  0  0  0  0  0  0
  1  2  1  0
  2  3  2  0
  3  4  1  0
  4  5  2  0
  5  6  1  0
  6  7  1  0
  7  8  1  0
  8  9  1  0
  9 10  1  0
 10 11  1  0
 11 12  2  0
 11 13  1  0
 13 14  1  0
  9 15  2  0
  6 16  1  0
 16 17  1  0
 17 18  1  1
 17 19  1  0
 19 20  1  1
 19 21  1  0
 21 22  1  1
 21 23  1  0
 23 24  1  0
 24 25  1  0
 25 26  1  0
 26 27  1  0
 27 28  1  0
 27 29  1  0
 29 30  1  0
 31 30  1  1
 31 32  1  0
 32 33  1  6
 32 34  1  0
 34 35  1  6
 34 36  1  0
 36 37  1  1
 37 38  1  0
 38 39  2  0
 39 40  1  0
 40 41  2  0
 41 42  1  0
 41 43  1  0
 43 44  2  0
 44 45  1  0
 45 46  2  0
 36 47  1  0
 27 48  2  0
 25 49  1  0
 25 50  2  0
  5 51  1  0
 51 52  2  0
 52 53  1  0
 14  4  1  0
 13  7  2  0
 46 37  1  0
 46 40  1  0
 47 31  1  0
 52  2  1  0
M  CHG  2  28  -1  49  -1
M  END

