
     RDKit          3D

 15 14  0  0  0  0  0  0  0  0999 V2000
   -3.6737    0.2423    0.5701 C   0  0  0  0  0  0  0  0  0  0  0  0
   -2.2846    0.6956    0.1805 C   0  0  1  0  0  0  0  0  0  0  0  0
   -1.2791   -0.4447    0.2433 C   0  0  2  0  0  0  0  0  0  0  0  0
    0.0084    0.1113   -0.3209 C   0  0  2  0  0  0  0  0  0  0  0  0
    1.0007   -0.9127   -0.6356 C   0  0  0  0  0  0  0  0  0  0  0  0
    2.3583   -0.8045   -0.0604 C   0  0  0  0  0  0  0  0  0  0  0  0
    2.4240    0.3370    0.7247 O   0  0  0  0  0  0  0  0  0  0  0  0
    4.0064    0.4223    1.3680 P   0  0  0  0  0  5  0  0  0  0  0  0
    4.0907    1.5559    2.6043 O   0  0  0  0  0  1  0  0  0  0  0  0
    4.3245   -0.9784    1.8719 O   0  0  0  0  0  0  0  0  0  0  0  0
    5.0921    0.8466    0.1306 O   0  0  0  0  0  1  0  0  0  0  0  0
    0.7655   -1.8651   -1.3575 O   0  0  0  0  0  0  0  0  0  0  0  0
    0.4329    1.1169    0.5065 O   0  0  0  0  0  0  0  0  0  0  0  0
   -1.6819   -1.4711   -0.6308 O   0  0  0  0  0  0  0  0  0  0  0  0
   -2.2843    1.1328   -1.1558 O   0  0  0  0  0  0  0  0  0  0  0  0
  2  1  1  6
  2  3  1  0
  3  4  1  0
  4  5  1  0
  5  6  1  0
  6  7  1  0
  7  8  1  0
  8  9  1  0
  8 10  2  0
  8 11  1  0
  5 12  2  0
  4 13  1  1
  3 14  1  6
  2 15  1  0
M  CHG  2   9  -1  11  -1
M  END

