
     RDKit          3D

 11 10  0  0  0  0  0  0  0  0999 V2000
   -1.9616    1.5053   -0.6088 C   0  0  0  0  0  0  0  0  0  0  0  0
   -1.8658    0.0754   -0.1311 C   0  0  2  0  0  0  0  0  0  0  0  0
   -2.3540   -0.0522    1.1792 O   0  0  0  0  0  0  0  0  0  0  0  0
   -0.5150   -0.5173   -0.3053 C   0  0  1  0  0  0  0  0  0  0  0  0
   -0.1101   -0.3528   -1.6059 O   0  0  0  0  0  0  0  0  0  0  0  0
    0.5020   -0.0420    0.7053 C   0  0  1  0  0  0  0  0  0  0  0  0
    0.0233   -0.2290    2.0081 O   0  0  0  0  0  0  0  0  0  0  0  0
    1.7841   -0.7666    0.5831 C   0  0  0  0  0  0  0  0  0  0  0  0
    2.1166   -1.5037    1.5095 O   0  0  0  0  0  0  0  0  0  0  0  0
    2.7348   -0.7062   -0.5456 C   0  0  0  0  0  0  0  0  0  0  0  0
    2.3880    0.2047   -1.5294 O   0  0  0  0  0  0  0  0  0  0  0  0
  2  1  1  1
  2  3  1  0
  2  4  1  0
  4  5  1  6
  4  6  1  0
  6  7  1  1
  6  8  1  0
  8  9  2  0
  8 10  1  0
 10 11  1  0
M  END

