
     RDKit          3D

 48 48  0  0  0  0  0  0  0  0999 V2000
    7.7362   -1.5127    1.9775 C   0  0  0  0  0  0  0  0  0  0  0  0
    6.3464   -2.0585    1.9221 C   0  0  0  0  0  0  0  0  0  0  0  0
    5.5846   -1.7476    2.8635 O   0  0  0  0  0  0  0  0  0  0  0  0
    5.9592   -2.8762    0.8466 N   0  0  0  0  0  0  0  0  0  0  0  0
    4.6323   -3.4054    0.7279 C   0  0  0  0  0  0  0  0  0  0  0  0
    3.7376   -2.5222   -0.0570 C   0  0  0  0  0  0  0  0  0  0  0  0
    3.6162   -1.1753    0.5516 C   0  0  0  0  0  0  0  0  0  0  0  0
    2.6701   -0.2717   -0.2668 C   0  0  2  0  0  0  0  0  0  0  0  0
    3.1943   -0.1189   -1.6472 C   0  0  0  0  0  0  0  0  0  0  0  0
    4.2259    0.6207   -1.7826 O   0  0  0  0  0  0  0  0  0  0  0  0
    2.6580   -0.7112   -2.7993 N   0  0  0  0  0  0  0  0  0  0  0  0
    1.4508   -1.5229   -2.8259 C   0  0  0  0  0  0  0  0  0  0  0  0
    1.7839   -2.9672   -3.0484 C   0  0  0  0  0  0  0  0  0  0  0  0
    2.5734   -3.2426   -3.9886 O   0  0  0  0  0  0  0  0  0  0  0  0
    1.2317   -3.9969   -2.2312 N   0  0  0  0  0  0  0  0  0  0  0  0
   -0.0051   -3.8741   -1.5227 C   0  0  0  0  0  0  0  0  0  0  0  0
   -1.1867   -3.8899   -2.4199 C   0  0  0  0  0  0  0  0  0  0  0  0
   -1.1238   -4.6119   -3.4602 O   0  0  0  0  0  0  0  0  0  0  0  0
   -2.3804   -3.1604   -2.2035 N   0  0  0  0  0  0  0  0  0  0  0  0
   -2.4356   -1.7752   -1.7383 C   0  0  0  0  0  0  0  0  0  0  0  0
   -2.3638   -1.7049   -0.2594 C   0  0  0  0  0  0  0  0  0  0  0  0
   -2.6180   -2.7812    0.3579 O   0  0  0  0  0  0  0  0  0  0  0  0
   -2.0443   -0.5750    0.5096 N   0  0  0  0  0  0  0  0  0  0  0  0
   -2.4089    0.7761    0.2556 C   0  0  1  0  0  0  0  0  0  0  0  0
   -3.8860    0.9544    0.2121 C   0  0  0  0  0  0  0  0  0  0  0  0
   -4.6889    0.6493    1.4262 C   0  0  0  0  0  0  0  0  0  0  0  0
   -4.5884   -0.7495    1.8900 C   0  0  0  0  0  0  0  0  0  0  0  0
   -5.4256   -1.0100    3.0603 N   0  0  0  0  0  0  0  0  0  0  0  0
   -4.9452   -0.8382    4.2988 O   0  0  0  0  0  0  0  0  0  0  0  0
   -6.7493   -1.4454    2.8371 C   0  0  0  0  0  0  0  0  0  0  0  0
   -7.6533   -1.7296    4.0041 C   0  0  0  0  0  0  0  0  0  0  0  0
   -7.2407   -1.6177    1.6929 O   0  0  0  0  0  0  0  0  0  0  0  0
   -1.7629    1.7147    1.2329 C   0  0  0  0  0  0  0  0  0  0  0  0
   -2.3091    1.8500    2.3529 O   0  0  0  0  0  0  0  0  0  0  0  0
   -0.5736    2.4526    0.9586 N   0  0  0  0  0  0  0  0  0  0  0  0
    0.4361    2.0737    0.0627 C   0  0  1  0  0  0  0  0  0  0  0  0
    0.8263    2.9129   -1.0966 C   0  0  0  0  0  0  0  0  0  0  0  0
    1.3270    4.2692   -0.8909 C   0  0  0  0  0  0  0  0  0  0  0  0
    0.4820    5.4088   -0.4893 C   0  0  0  0  0  0  0  0  0  0  0  0
   -0.4654    5.8711   -1.4751 N   0  0  0  0  0  0  0  0  0  0  0  0
   -1.7723    5.4653   -1.6110 C   0  0  0  0  0  0  0  0  0  0  0  0
   -2.4159    4.5088   -0.6927 C   0  0  0  0  0  0  0  0  0  0  0  0
   -2.4983    5.9231   -2.5694 O   0  0  0  0  0  0  0  0  0  0  0  0
   -0.0358    6.8241   -2.3948 O   0  0  0  0  0  0  0  0  0  0  0  0
    1.7389    1.8228    0.8371 C   0  0  0  0  0  0  0  0  0  0  0  0
    1.8302    2.3901    1.9572 O   0  0  0  0  0  0  0  0  0  0  0  0
    2.7710    1.0267    0.3624 N   0  0  0  0  0  0  0  0  0  0  0  0
    6.8582   -3.1865   -0.1241 O   0  0  0  0  0  0  0  0  0  0  0  0
  1  2  1  0
  2  3  2  0
  2  4  1  0
  4  5  1  0
  5  6  1  0
  6  7  1  0
  8  7  1  1
  8  9  1  0
  9 10  2  0
  9 11  1  0
 11 12  1  0
 12 13  1  0
 13 14  2  0
 13 15  1  0
 15 16  1  0
 16 17  1  0
 17 18  2  0
 17 19  1  0
 19 20  1  0
 20 21  1  0
 21 22  2  0
 21 23  1  0
 23 24  1  0
 24 25  1  1
 25 26  1  0
 26 27  1  0
 27 28  1  0
 28 29  1  0
 28 30  1  0
 30 31  1  0
 30 32  2  0
 24 33  1  0
 33 34  2  0
 33 35  1  0
 35 36  1  0
 36 37  1  6
 37 38  1  0
 38 39  1  0
 39 40  1  0
 40 41  1  0
 41 42  1  0
 41 43  2  0
 40 44  1  0
 36 45  1  0
 45 46  2  0
 45 47  1  0
  4 48  1  0
 47  8  1  0
M  END

