
     RDKit          3D

 40 41  0  0  0  0  0  0  0  0999 V2000
    0.1445   -5.2786   -1.1414 C   0  0  0  0  0  0  0  0  0  0  0  0
   -0.0217   -3.8434   -1.4532 C   0  0  0  0  0  0  0  0  0  0  0  0
    0.2202   -3.4109   -2.5989 O   0  0  0  0  0  0  0  0  0  0  0  0
   -0.4572   -2.9503   -0.4505 N   0  0  0  0  0  0  0  0  0  0  0  0
   -0.6068   -1.6165   -0.7646 O   0  0  0  0  0  0  0  0  0  0  0  0
   -0.1961   -0.3324   -0.5851 Fe  0  0  0  0  0  3  0  0  0  0  0  0
   -1.1643    0.8893    0.7332 O   0  0  0  0  0  0  0  0  0  0  0  0
   -1.8776    1.6400   -0.1268 N   0  0  0  0  0  0  0  0  0  0  0  0
   -1.2714    2.8871   -0.5986 C   0  0  0  0  0  0  0  0  0  0  0  0
   -1.2740    3.9372    0.5026 C   0  0  0  0  0  0  0  0  0  0  0  0
   -1.2411    5.3329   -0.0842 C   0  0  0  0  0  0  0  0  0  0  0  0
   -0.1889    6.2019    0.5258 C   0  0  0  0  0  0  0  0  0  0  0  0
    1.1323    6.1503   -0.2084 C   0  0  0  0  0  0  0  0  0  0  0  0
    2.2109    5.9746    0.7451 N   0  0  0  0  0  0  0  0  0  0  0  0
    3.4720    5.4231    0.4306 C   0  0  0  0  0  0  0  0  0  0  0  0
    4.5334    5.9474    0.8933 O   0  0  0  0  0  0  0  0  0  0  0  0
    3.6685    4.2275   -0.4352 C   0  0  0  0  0  0  0  0  0  0  0  0
    2.5298    3.2628   -0.3685 C   0  0  0  0  0  0  0  0  0  0  0  0
    2.9663    1.8746   -0.0807 C   0  0  0  0  0  0  0  0  0  0  0  0
    4.0547    1.6954    0.5160 O   0  0  0  0  0  0  0  0  0  0  0  0
    2.2000    0.7579   -0.4551 N   0  0  0  0  0  0  0  0  0  0  0  0
    1.0542    0.8157   -1.1462 O   0  0  0  0  0  0  0  0  0  0  0  0
    2.6810   -0.5772   -0.0680 C   0  0  0  0  0  0  0  0  0  0  0  0
    3.5594   -1.0671   -1.1872 C   0  0  0  0  0  0  0  0  0  0  0  0
    4.0665   -2.4422   -0.8329 C   0  0  0  0  0  0  0  0  0  0  0  0
    4.8702   -2.4904    0.4199 C   0  0  0  0  0  0  0  0  0  0  0  0
    5.3153   -3.9336    0.6369 C   0  0  0  0  0  0  0  0  0  0  0  0
    6.1062   -4.0709    1.8401 N   0  0  0  0  0  0  0  0  0  0  0  0
   -3.1674    1.3066   -0.6029 C   0  0  0  0  0  0  0  0  0  0  0  0
   -3.6595    1.9931   -1.5346 O   0  0  0  0  0  0  0  0  0  0  0  0
   -3.9670    0.1632   -0.0345 C   0  0  0  0  0  0  0  0  0  0  0  0
   -5.3782    0.6041    0.2853 C   0  0  0  0  0  0  0  0  0  0  0  0
   -6.3822   -0.4417   -0.0309 C   0  0  0  0  0  0  0  0  0  0  0  0
   -7.5297   -0.0222   -0.3765 O   0  0  0  0  0  0  0  0  0  0  0  0
   -6.1378   -1.8411    0.0301 N   0  0  0  0  0  0  0  0  0  0  0  0
   -5.4480   -2.5151    1.1093 C   0  0  0  0  0  0  0  0  0  0  0  0
   -4.5199   -3.6158    0.5775 C   0  0  0  0  0  0  0  0  0  0  0  0
   -3.1235   -3.0891    0.6955 C   0  0  0  0  0  0  0  0  0  0  0  0
   -2.0822   -4.1693    0.8876 C   0  0  0  0  0  0  0  0  0  0  0  0
   -0.7345   -3.4427    0.8688 C   0  0  0  0  0  0  0  0  0  0  0  0
  1  2  1  0
  2  3  2  0
  2  4  1  0
  4  5  1  0
  5  6  1  0
  6  7  1  0
  7  8  1  0
  8  9  1  0
  9 10  1  0
 10 11  1  0
 11 12  1  0
 12 13  1  0
 13 14  1  0
 14 15  1  0
 15 16  2  0
 15 17  1  0
 17 18  1  0
 18 19  1  0
 19 20  2  0
 19 21  1  0
 21 22  1  0
 21 23  1  0
 23 24  1  0
 24 25  1  0
 25 26  1  0
 26 27  1  0
 27 28  1  0
  8 29  1  0
 29 30  2  0
 29 31  1  0
 31 32  1  0
 32 33  1  0
 33 34  2  0
 33 35  1  0
 35 36  1  0
 36 37  1  0
 37 38  1  0
 38 39  1  0
 39 40  1  0
 22  6  1  0
 40  4  1  0
M  CHG  1   6   3
M  END

