
     RDKit          3D

 31 33  0  0  0  0  0  0  0  0999 V2000
   -4.5366    3.2163   -0.6524 C   0  0  0  0  0  0  0  0  0  0  0  0
   -3.6481    2.0424   -0.4351 C   0  0  0  0  0  0  0  0  0  0  0  0
   -2.3422    2.2813   -0.0679 C   0  0  0  0  0  0  0  0  0  0  0  0
   -1.8484    3.6810    0.1028 C   0  0  0  0  0  0  0  0  0  0  0  0
   -1.5193    1.2036    0.1337 C   0  0  0  0  0  0  0  0  0  0  0  0
   -1.9573   -0.0932   -0.0188 C   0  0  0  0  0  0  0  0  0  0  0  0
   -1.1619   -1.1550    0.1720 N   0  0  0  0  0  0  0  0  0  0  0  0
    0.2012   -0.9822    0.5660 C   0  0  0  0  0  0  0  0  0  0  0  0
    1.0273   -0.8525   -0.7250 C   0  0  2  0  0  0  0  0  0  0  0  0
    0.8855   -2.0013   -1.5020 O   0  0  0  0  0  0  0  0  0  0  0  0
    2.4836   -0.5995   -0.3922 C   0  0  2  0  0  0  0  0  0  0  0  0
    3.0706   -1.6190    0.3138 O   0  0  0  0  0  0  0  0  0  0  0  0
    2.6858    0.7453    0.2643 C   0  0  2  0  0  0  0  0  0  0  0  0
    2.0611    1.6978   -0.5238 O   0  0  0  0  0  0  0  0  0  0  0  0
    4.1670    1.0444    0.3010 C   0  0  0  0  0  0  0  0  0  0  0  0
    4.8387    0.0917    1.0972 O   0  0  0  0  0  0  0  0  0  0  0  0
    6.4838    0.3962    1.1578 P   0  0  0  0  0  5  0  0  0  0  0  0
    6.8321    1.1046    2.6562 O   0  0  0  0  0  1  0  0  0  0  0  0
    7.2668   -0.9125    1.0694 O   0  0  0  0  0  0  0  0  0  0  0  0
    7.0086    1.4166   -0.0721 O   0  0  0  0  0  1  0  0  0  0  0  0
   -1.5746   -2.4478    0.0218 C   0  0  0  0  0  0  0  0  0  0  0  0
   -2.9559   -2.6689   -0.3663 C   0  0  0  0  0  0  0  0  0  0  0  0
   -3.3754   -3.9850   -0.5191 C   0  0  0  0  0  0  0  0  0  0  0  0
   -4.5532   -4.2108   -0.8512 O   0  0  0  0  0  0  0  0  0  0  0  0
   -2.4924   -5.0027   -0.3034 N   0  0  0  0  0  2  0  0  0  0  0  0
   -1.2160   -4.7793    0.0558 C   0  0  0  0  0  0  0  0  0  0  0  0
   -0.4812   -5.7828    0.2310 O   0  0  0  0  0  0  0  0  0  0  0  0
   -0.7657   -3.5037    0.2160 N   0  0  0  0  0  0  0  0  0  0  0  0
   -3.7549   -1.6060   -0.5576 N   0  0  0  0  0  0  0  0  0  0  0  0
   -3.2811   -0.3585   -0.3919 C   0  0  0  0  0  0  0  0  0  0  0  0
   -4.0992    0.7504   -0.5914 C   0  0  0  0  0  0  0  0  0  0  0  0
  1  2  1  0
  2  3  2  0
  3  4  1  0
  3  5  1  0
  5  6  2  0
  6  7  1  0
  7  8  1  0
  8  9  1  0
  9 10  1  1
  9 11  1  0
 11 12  1  1
 11 13  1  0
 13 14  1  6
 13 15  1  0
 15 16  1  0
 16 17  1  0
 17 18  1  0
 17 19  2  0
 17 20  1  0
  7 21  1  0
 21 22  1  0
 22 23  1  0
 23 24  2  0
 23 25  1  0
 25 26  1  0
 26 27  2  0
 26 28  1  0
 22 29  2  0
 29 30  1  0
 30 31  2  0
 28 21  2  0
 31  2  1  0
 30  6  1  0
M  CHG  3  18  -1  20  -1  25  -1
M  END

