
     RDKit          3D

 31 33  0  0  0  0  0  0  0  0999 V2000
   -5.0745   -1.4796    2.0032 C   0  0  0  0  0  0  0  0  0  0  0  0
   -3.9465   -0.9985    1.1483 C   0  0  0  0  0  0  0  0  0  0  0  0
   -2.7907   -1.7456    1.0753 C   0  0  0  0  0  0  0  0  0  0  0  0
   -2.6812   -3.0019    1.8358 C   0  0  0  0  0  0  0  0  0  0  0  0
   -1.7629   -1.2571    0.2642 C   0  0  0  0  0  0  0  0  0  0  0  0
   -1.8507   -0.0968   -0.4438 C   0  0  0  0  0  0  0  0  0  0  0  0
   -0.7615    0.3463   -1.2681 N   0  0  0  0  0  0  0  0  0  0  0  0
    0.4391   -0.4096   -1.3031 C   0  0  0  0  0  0  0  0  0  0  0  0
    1.3313   -0.2798   -0.0907 C   0  0  2  0  0  0  0  0  0  0  0  0
    1.7545    1.0333    0.1052 O   0  0  0  0  0  0  0  0  0  0  0  0
    2.4735   -1.2536   -0.2976 C   0  0  2  0  0  0  0  0  0  0  0  0
    1.8216   -2.5081   -0.4987 O   0  0  0  0  0  0  0  0  0  0  0  0
    3.3472   -1.4347    0.9075 C   0  0  2  0  0  0  0  0  0  0  0  0
    2.6338   -1.7569    2.0486 O   0  0  0  0  0  0  0  0  0  0  0  0
    4.2297   -0.2243    1.0693 C   0  0  0  0  0  0  0  0  0  0  0  0
    5.1561   -0.5328    2.0980 O   0  0  0  0  0  0  0  0  0  0  0  0
    6.1309    0.8620    2.2453 P   0  0  0  0  0  5  0  0  0  0  0  0
    5.1142    2.0991    2.7904 O   0  0  0  0  0  1  0  0  0  0  0  0
    7.2793    0.6508    3.1708 O   0  0  0  0  0  0  0  0  0  0  0  0
    6.7125    1.1995    0.6768 O   0  0  0  0  0  1  0  0  0  0  0  0
   -0.9626    1.5764   -1.9841 C   0  0  0  0  0  0  0  0  0  0  0  0
    0.0298    2.0326   -2.7670 N   0  0  0  0  0  0  0  0  0  0  0  0
   -0.1596    3.1994   -3.4435 C   0  0  0  0  0  0  0  0  0  0  0  0
    0.8178    3.5810   -4.1703 O   0  0  0  0  0  0  0  0  0  0  0  0
   -1.2717    3.9204   -3.3775 N   0  0  0  0  0  0  0  0  0  0  0  0
   -2.2634    3.4796   -2.6046 C   0  0  0  0  0  0  0  0  0  0  0  0
   -3.3438    4.1312   -2.5082 O   0  0  0  0  0  0  0  0  0  0  0  0
   -2.1443    2.3014   -1.8863 C   0  0  0  0  0  0  0  0  0  0  0  0
   -3.2006    1.8379   -1.0628 N   0  0  0  0  0  0  0  0  0  0  0  0
   -3.0355    0.6376   -0.3496 C   0  0  0  0  0  0  0  0  0  0  0  0
   -4.0706    0.1717    0.4504 C   0  0  0  0  0  0  0  0  0  0  0  0
  1  2  1  0
  2  3  2  0
  3  4  1  0
  3  5  1  0
  5  6  2  0
  6  7  1  0
  7  8  1  0
  8  9  1  0
  9 10  1  6
  9 11  1  0
 11 12  1  1
 11 13  1  0
 13 14  1  1
 13 15  1  0
 15 16  1  0
 16 17  1  0
 17 18  1  0
 17 19  2  0
 17 20  1  0
  7 21  1  0
 21 22  1  0
 22 23  1  0
 23 24  2  0
 23 25  1  0
 25 26  1  0
 26 27  2  0
 26 28  1  0
 28 29  1  0
 29 30  1  0
 30 31  2  0
 31  2  1  0
 30  6  1  0
 28 21  2  0
M  CHG  2  18  -1  20  -1
M  END

