
     RDKit          3D

 13 12  0  0  0  0  0  0  0  0999 V2000
    2.8448    0.6008   -0.0742 C   0  0  0  0  0  0  0  0  0  0  0  0
    3.5272    1.6297   -0.2594 O   0  0  0  0  0  0  0  0  0  0  0  0
    3.4688   -0.6104    0.1196 O   0  0  0  0  0  1  0  0  0  0  0  0
    1.3616    0.6886   -0.0636 C   0  0  1  0  0  0  0  0  0  0  0  0
    0.9744    1.0004   -1.3476 O   0  0  0  0  0  0  0  0  0  0  0  0
    0.7381   -0.5054    0.5399 C   0  0  1  0  0  0  0  0  0  0  0  0
    1.3628   -0.6842    1.8132 O   0  0  0  0  0  0  0  0  0  0  0  0
   -0.7453   -0.3796    0.9008 C   0  0  2  0  0  0  0  0  0  0  0  0
   -1.0216   -1.6454    1.5447 O   0  0  0  0  0  0  0  0  0  0  0  0
   -1.5998   -0.3864   -0.2978 C   0  0  0  0  0  0  0  0  0  0  0  0
   -1.8437   -1.4932   -0.8142 O   0  0  0  0  0  0  0  0  0  0  0  0
   -2.1753    0.8284   -0.8972 C   0  0  0  0  0  0  0  0  0  0  0  0
   -2.8642    0.4839   -2.0659 O   0  0  0  0  0  0  0  0  0  0  0  0
  1  2  2  0
  1  3  1  0
  1  4  1  0
  4  5  1  6
  4  6  1  0
  6  7  1  1
  6  8  1  0
  8  9  1  1
  8 10  1  0
 10 11  2  0
 10 12  1  0
 12 13  1  0
M  CHG  1   3  -1
M  END

