
     RDKit          3D

 11 10  0  0  0  0  0  0  0  0999 V2000
   -2.1374   -0.3560    0.9941 C   0  0  0  0  0  0  0  0  0  0  0  0
   -1.3285    0.5566    0.1480 C   0  0  1  0  0  0  0  0  0  0  0  0
   -0.3951   -0.1180   -0.8011 C   0  0  1  0  0  0  0  0  0  0  0  0
    0.2933    0.8546   -1.5169 O   0  0  0  0  0  0  0  0  0  0  0  0
    0.5681   -1.0659   -0.2026 C   0  0  1  0  0  0  0  0  0  0  0  0
    1.2890   -1.6486   -1.2742 O   0  0  0  0  0  0  0  0  0  0  0  0
    1.6125   -0.4028    0.6681 C   0  0  1  0  0  0  0  0  0  0  0  0
    2.4385    0.5675   -0.0619 C   0  0  0  0  0  0  0  0  0  0  0  0
    3.0784    0.2991   -1.0636 O   0  0  0  0  0  0  0  0  0  0  0  0
    1.0097    0.2065    1.7637 O   0  0  0  0  0  0  0  0  0  0  0  0
   -2.2133    1.3343   -0.6370 O   0  0  0  0  0  0  0  0  0  0  0  0
  2  1  1  6
  2  3  1  0
  3  4  1  1
  3  5  1  0
  5  6  1  6
  5  7  1  0
  7  8  1  0
  8  9  2  0
  7 10  1  1
  2 11  1  0
M  END

