
     RDKit          3D

 37 40  0  0  0  0  0  0  0  0999 V2000
    6.4774    4.0743    1.6205 C   0  0  0  0  0  0  0  0  0  0  0  0
    6.2227    2.7453    1.0046 C   0  0  0  0  0  0  0  0  0  0  0  0
    7.3698    1.8186    0.7878 C   0  0  0  0  0  0  0  0  0  0  0  0
    5.0134    2.4091    0.6650 C   0  0  0  0  0  0  0  0  0  0  0  0
    4.6710    1.0965    0.0422 C   0  0  0  0  0  0  0  0  0  0  0  0
    3.7014    0.3449    0.8941 C   0  0  0  0  0  0  0  0  0  0  0  0
    3.3245   -1.0061    0.2833 C   0  0  0  0  0  0  0  0  0  0  0  0
    4.4405   -1.9294    0.3537 C   0  0  0  0  0  0  0  0  0  0  0  0
    4.3707   -3.2246   -0.0630 O   0  0  0  0  0  1  0  0  0  0  0  0
    5.5781   -1.5497    0.8308 O   0  0  0  0  0  0  0  0  0  0  0  0
    2.1353   -1.2362   -0.1719 C   0  0  0  0  0  0  0  0  0  0  0  0
    0.8859   -0.4405   -0.2689 C   0  0  2  0  0  0  0  0  0  0  0  0
    0.7379    0.9455    0.0193 C   0  0  0  0  0  0  0  0  0  0  0  0
   -0.6818    1.3462   -0.5302 C   0  0  1  0  0  0  0  0  0  0  0  0
   -0.7219    1.3818   -1.8747 O   0  0  0  0  0  0  0  0  0  0  0  0
   -1.6502    0.4511    0.1945 C   0  0  2  0  0  0  0  0  0  0  0  0
   -1.4599   -1.0019   -0.0806 C   0  0  2  0  0  0  0  0  0  0  0  0
   -1.5889   -1.4388   -1.4947 C   0  0  0  0  0  0  0  0  0  0  0  0
   -2.5719   -1.7398    0.6549 C   0  0  0  0  0  0  0  0  0  0  0  0
   -3.9016   -1.3641    0.0772 C   0  0  0  0  0  0  0  0  0  0  0  0
   -4.0562    0.0855   -0.2801 C   0  0  1  0  0  0  0  0  0  0  0  0
   -5.4771    0.4966    0.0559 C   0  0  2  0  0  0  0  0  0  0  0  0
   -6.4066    0.0567   -1.0748 C   0  0  0  0  0  0  0  0  0  0  0  0
   -5.6509    1.9450    0.2790 C   0  0  2  0  0  0  0  0  0  0  0  0
   -6.8829    2.3445   -0.2997 O   0  0  0  0  0  0  0  0  0  0  0  0
   -4.6044    2.8234   -0.3110 C   0  0  0  0  0  0  0  0  0  0  0  0
   -3.2039    2.3560   -0.2788 C   0  0  0  0  0  0  0  0  0  0  0  0
   -3.0287    0.9675    0.3415 C   0  0  2  0  0  0  0  0  0  0  0  0
   -3.4421    1.1677    1.8155 C   0  0  0  0  0  0  0  0  0  0  0  0
   -0.1007   -1.3766    0.4456 C   0  0  2  0  0  0  0  0  0  0  0  0
    0.0537   -1.2009    1.9400 C   0  0  0  0  0  0  0  0  0  0  0  0
    0.3695   -2.7413    0.1257 C   0  0  0  0  0  0  0  0  0  0  0  0
    1.5766   -2.4651   -0.8206 C   0  0  2  0  0  0  0  0  0  0  0  0
    2.3303   -3.5711   -1.0231 O   0  0  0  0  0  0  0  0  0  0  0  0
    2.3693   -4.1540   -2.2972 C   0  0  0  0  0  0  0  0  0  0  0  0
    1.6976   -3.6251   -3.2148 O   0  0  0  0  0  0  0  0  0  0  0  0
    3.1609   -5.3570   -2.6090 C   0  0  0  0  0  0  0  0  0  0  0  0
  1  2  1  0
  2  3  1  0
  2  4  2  3
  4  5  1  0
  5  6  1  0
  6  7  1  0
  7  8  1  0
  8  9  1  0
  8 10  2  0
  7 11  2  3
 11 12  1  0
 12 13  1  1
 13 14  1  0
 14 15  1  6
 16 14  1  6
 16 17  1  0
 17 18  1  6
 17 19  1  0
 19 20  1  0
 21 20  1  1
 21 22  1  0
 22 23  1  6
 22 24  1  0
 24 25  1  6
 24 26  1  0
 26 27  1  0
 27 28  1  0
 28 29  1  1
 17 30  1  0
 30 31  1  1
 30 32  1  0
 32 33  1  0
 33 34  1  1
 34 35  1  0
 35 36  2  0
 35 37  1  0
 28 21  1  0
 28 16  1  0
 33 11  1  0
 30 12  1  0
M  CHG  1   9  -1
M  END

