
     RDKit          3D

 16 15  0  0  0  0  0  0  0  0999 V2000
    2.3237   -0.5657   -0.9012 C   0  0  0  0  0  0  0  0  0  0  0  0
    3.0484    0.4341   -0.1415 N   0  0  0  0  0  4  0  0  0  0  0  0
    4.4588    0.1772   -0.0747 C   0  0  0  0  0  0  0  0  0  0  0  0
    2.8542    1.7507   -0.7920 C   0  0  0  0  0  0  0  0  0  0  0  0
    2.5420    0.6255    1.1980 C   0  0  0  0  0  0  0  0  0  0  0  0
    1.3487   -1.2970   -0.0691 C   0  0  0  0  0  0  0  0  0  0  0  0
    0.4415   -2.0804   -0.8236 O   0  0  0  0  0  0  0  0  0  0  0  0
   -1.0389   -1.3246   -0.3003 P   0  0  0  0  0  5  0  0  0  0  0  0
   -0.6894    0.3456   -0.7232 O   0  0  0  0  0  1  0  0  0  0  0  0
   -1.1049   -1.4383    1.1717 O   0  0  0  0  0  0  0  0  0  0  0  0
   -2.3724   -1.8082   -1.0903 O   0  0  0  0  0  0  0  0  0  0  0  0
   -3.4950   -1.4671   -0.2848 C   0  0  0  0  0  0  0  0  0  0  0  0
   -3.6039    0.0353   -0.3183 C   0  0  2  0  0  0  0  0  0  0  0  0
   -2.8051    0.6313    0.6766 O   0  0  0  0  0  0  0  0  0  0  0  0
   -4.9440    0.6265   -0.3638 C   0  0  0  0  0  0  0  0  0  0  0  0
   -5.4375    0.7181    0.9397 O   0  0  0  0  0  0  0  0  0  0  0  0
  1  2  1  0
  2  3  1  0
  2  4  1  0
  2  5  1  0
  1  6  1  0
  6  7  1  0
  7  8  1  0
  8  9  1  0
  8 10  2  0
  8 11  1  0
 11 12  1  0
 12 13  1  0
 13 14  1  1
 13 15  1  0
 15 16  1  0
M  CHG  2   2   1   9  -1
M  END

