
     RDKit          3D

 15 14  0  0  0  0  0  0  0  0999 V2000
    4.1094   -0.1282   -1.0175 C   0  0  0  0  0  0  0  0  0  0  0  0
    3.0498    0.1120   -0.0234 C   0  0  0  0  0  0  0  0  0  0  0  0
    1.9879   -0.9039    0.1802 C   0  0  0  0  0  0  0  0  0  0  0  0
    0.7990   -0.5349   -0.4573 O   0  0  0  0  0  0  0  0  0  0  0  0
    0.0197    0.6317    0.5205 P   0  0  0  0  0  5  0  0  0  0  0  0
   -1.5775    0.3483    0.8466 O   0  0  0  0  0  0  0  0  0  0  0  0
   -1.9891   -0.8850    0.3287 C   0  0  0  0  0  0  0  0  0  0  0  0
   -3.2547   -0.5767   -0.4738 C   0  0  0  0  0  0  0  0  0  0  0  0
   -4.4386   -0.2100    0.3354 C   0  0  0  0  0  0  0  0  0  0  0  0
   -5.2978    0.6671   -0.3783 O   0  0  0  0  0  0  0  0  0  0  0  0
   -2.8704    0.6192   -1.1923 O   0  0  0  0  0  0  0  0  0  0  0  0
    0.9084    0.9480    1.8782 O   0  0  0  0  0  1  0  0  0  0  0  0
   -0.0179    1.9203   -0.3897 O   0  0  0  0  0  0  0  0  0  0  0  0
    2.5420    1.4042   -0.1290 O   0  0  0  0  0  0  0  0  0  0  0  0
    5.2573    0.6372   -0.7035 O   0  0  0  0  0  0  0  0  0  0  0  0
  1  2  1  0
  2  3  1  0
  3  4  1  0
  4  5  1  0
  5  6  1  0
  6  7  1  0
  7  8  1  0
  8  9  1  0
  9 10  1  0
  8 11  1  0
  5 12  1  0
  5 13  2  0
  2 14  1  0
  1 15  1  0
M  CHG  1  12  -1
M  END

