
     RDKit          3D

 16 15  0  0  0  0  0  0  0  0999 V2000
   -3.2673    0.7681   -0.7573 C   0  0  0  0  0  0  0  0  0  0  0  0
   -4.3319    1.6358   -0.5914 O   0  0  0  0  0  0  0  0  0  0  0  0
   -3.2818   -0.2021    0.4294 C   0  0  1  0  0  0  0  0  0  0  0  0
   -4.5095   -0.8589    0.3720 O   0  0  0  0  0  0  0  0  0  0  0  0
   -2.1696   -1.2337    0.2677 C   0  0  0  0  0  0  0  0  0  0  0  0
   -0.9185   -0.6356    0.3169 O   0  0  0  0  0  0  0  0  0  0  0  0
    0.2362   -1.8416    0.1313 P   0  0  0  0  0  5  0  0  0  0  0  0
    1.7922   -1.3220    0.4962 O   0  0  0  0  0  0  0  0  0  0  0  0
    1.9552   -0.0213    0.0448 C   0  0  0  0  0  0  0  0  0  0  0  0
    3.3260    0.5272    0.3306 C   0  0  2  0  0  0  0  0  0  0  0  0
    3.3498    1.8956   -0.1983 N   0  0  0  0  0  4  0  0  0  0  0  0
    4.3989   -0.2112   -0.3572 C   0  0  0  0  0  0  0  0  0  0  0  0
    5.5858    0.0166   -0.0054 O   0  0  0  0  0  0  0  0  0  0  0  0
    4.1965   -1.1373   -1.3621 O   0  0  0  0  0  1  0  0  0  0  0  0
   -0.1769   -3.1777    1.1022 O   0  0  0  0  0  1  0  0  0  0  0  0
    0.1978   -2.3330   -1.3094 O   0  0  0  0  0  0  0  0  0  0  0  0
  1  2  1  0
  1  3  1  0
  3  4  1  6
  3  5  1  0
  5  6  1  0
  6  7  1  0
  7  8  1  0
  8  9  1  0
  9 10  1  0
 10 11  1  6
 10 12  1  0
 12 13  2  0
 12 14  1  0
  7 15  1  0
  7 16  2  0
M  CHG  3  11   1  14  -1  15  -1
M  END

