
     RDKit          3D

 16 16  0  0  0  0  0  0  0  0999 V2000
    1.4295   -1.4981   -1.1271 C   0  0  0  0  0  0  0  0  0  0  0  0
    2.7813   -1.6072   -0.8025 O   0  0  0  0  0  0  0  0  0  0  0  0
    1.0629   -0.0177   -1.0800 C   0  0  1  0  0  0  0  0  0  0  0  0
   -0.2596    0.2075   -1.3865 O   0  0  0  0  0  0  0  0  0  0  0  0
   -1.0842    0.1178   -0.2887 C   0  0  2  0  0  0  0  0  0  0  0  0
   -2.4114   -0.1111   -0.6099 O   0  0  0  0  0  0  0  0  0  0  0  0
   -2.9877   -1.5729   -0.0162 P   0  0  0  0  0  5  0  0  0  0  0  0
   -3.4753   -1.3282    1.3967 O   0  0  0  0  0  0  0  0  0  0  0  0
   -1.7722   -2.7490    0.0851 O   0  0  0  0  0  1  0  0  0  0  0  0
   -4.3109   -2.1329   -0.9057 O   0  0  0  0  0  1  0  0  0  0  0  0
   -0.8986    1.3135    0.6039 C   0  0  2  0  0  0  0  0  0  0  0  0
   -1.5881    2.4329    0.1449 O   0  0  0  0  0  0  0  0  0  0  0  0
    0.5592    1.6151    0.7539 C   0  0  1  0  0  0  0  0  0  0  0  0
    0.8241    1.7885    2.1236 O   0  0  0  0  0  0  0  0  0  0  0  0
    1.4581    0.5084    0.2756 C   0  0  1  0  0  0  0  0  0  0  0  0
    1.5452   -0.5249    1.2216 O   0  0  0  0  0  0  0  0  0  0  0  0
  1  2  1  0
  3  1  1  1
  3  4  1  0
  4  5  1  0
  5  6  1  6
  6  7  1  0
  7  8  2  0
  7  9  1  0
  7 10  1  0
  5 11  1  0
 11 12  1  6
 11 13  1  0
 13 14  1  1
 13 15  1  0
 15 16  1  1
 15  3  1  0
M  CHG  2   9  -1  10  -1
M  END

