
     RDKit          3D

 12 12  0  0  0  0  0  0  0  0999 V2000
    2.0274   -0.9406   -0.0604 C   0  0  0  0  0  0  0  0  0  0  0  0
    3.0851   -0.1033    0.2851 O   0  0  0  0  0  0  0  0  0  0  0  0
    0.9841   -0.1951   -0.8887 C   0  0  1  0  0  0  0  0  0  0  0  0
   -0.0489   -1.0121   -1.2257 O   0  0  0  0  0  0  0  0  0  0  0  0
   -0.9692   -1.2789   -0.2514 C   0  0  2  0  0  0  0  0  0  0  0  0
   -2.1938   -1.5062   -0.9290 O   0  0  0  0  0  0  0  0  0  0  0  0
   -1.2710   -0.0979    0.6531 C   0  0  2  0  0  0  0  0  0  0  0  0
   -2.5998   -0.1098    1.0547 O   0  0  0  0  0  0  0  0  0  0  0  0
   -0.9358    1.1181   -0.1895 C   0  0  1  0  0  0  0  0  0  0  0  0
   -1.4063    2.2937    0.3566 O   0  0  0  0  0  0  0  0  0  0  0  0
    0.5980    1.1045   -0.2571 C   0  0  1  0  0  0  0  0  0  0  0  0
    1.0819    1.1810    1.0682 O   0  0  0  0  0  0  0  0  0  0  0  0
  1  2  1  0
  3  1  1  1
  3  4  1  0
  4  5  1  0
  5  6  1  6
  5  7  1  0
  7  8  1  6
  7  9  1  0
  9 10  1  1
  9 11  1  0
 11 12  1  1
 11  3  1  0
M  END

