
     RDKit          3D

 12 12  0  0  0  0  0  0  0  0999 V2000
    2.1213   -0.8590    0.1090 C   0  0  0  0  0  0  0  0  0  0  0  0
    3.0828    0.1223    0.3107 O   0  0  0  0  0  0  0  0  0  0  0  0
    0.9641   -0.3293   -0.7529 C   0  0  1  0  0  0  0  0  0  0  0  0
    0.0761   -1.3161   -0.9100 O   0  0  0  0  0  0  0  0  0  0  0  0
   -1.1936   -1.1987   -0.5228 C   0  0  1  0  0  0  0  0  0  0  0  0
   -1.7685   -2.4383   -0.1677 O   0  0  0  0  0  0  0  0  0  0  0  0
   -1.4339   -0.1666    0.5606 C   0  0  2  0  0  0  0  0  0  0  0  0
   -2.7482   -0.1153    0.9509 O   0  0  0  0  0  0  0  0  0  0  0  0
   -0.9772    1.1367   -0.1125 C   0  0  1  0  0  0  0  0  0  0  0  0
   -1.3457    2.2397    0.5904 O   0  0  0  0  0  0  0  0  0  0  0  0
    0.5237    0.9766   -0.2306 C   0  0  1  0  0  0  0  0  0  0  0  0
    1.0706    1.2212    1.0502 O   0  0  0  0  0  0  0  0  0  0  0  0
  1  2  1  0
  3  1  1  1
  3  4  1  0
  4  5  1  0
  5  6  1  1
  5  7  1  0
  7  8  1  6
  7  9  1  0
  9 10  1  1
  9 11  1  0
 11 12  1  1
 11  3  1  0
M  END

