
     RDKit          3D

 13 12  0  0  0  0  0  0  0  0999 V2000
    2.6135   -0.6310   -0.4980 C   0  0  0  0  0  0  0  0  0  0  0  0
    1.5546    0.4144   -0.2184 C   0  0  1  0  0  0  0  0  0  0  0  0
    0.2006   -0.2404   -0.0790 C   0  0  2  0  0  0  0  0  0  0  0  0
   -0.9099    0.7873   -0.0393 C   0  0  2  0  0  0  0  0  0  0  0  0
   -2.2583    0.1535    0.1315 C   0  0  1  0  0  0  0  0  0  0  0  0
   -2.6643   -0.6617   -1.0231 C   0  0  0  0  0  0  0  0  0  0  0  0
   -2.6598   -2.0445   -0.9848 O   0  0  0  0  0  1  0  0  0  0  0  0
   -3.0271   -0.0908   -2.0784 O   0  0  0  0  0  0  0  0  0  0  0  0
   -2.2895   -0.6020    1.2918 O   0  0  0  0  0  0  0  0  0  0  0  0
   -0.8539    1.5532   -1.2007 O   0  0  0  0  0  0  0  0  0  0  0  0
    0.2073   -1.0437    1.0507 O   0  0  0  0  0  0  0  0  0  0  0  0
    1.8654    1.2022    0.8878 O   0  0  0  0  0  0  0  0  0  0  0  0
    2.7941   -1.4979    0.5507 O   0  0  0  0  0  0  0  0  0  0  0  0
  1  2  1  0
  2  3  1  0
  3  4  1  0
  4  5  1  0
  5  6  1  0
  6  7  1  0
  6  8  2  0
  5  9  1  1
  4 10  1  6
  3 11  1  1
  2 12  1  1
  1 13  1  0
M  CHG  1   7  -1
M  END

