
     RDKit          3D

 16 15  0  0  0  0  0  0  0  0999 V2000
    2.1005    0.5298   -0.2242 C   0  0  0  0  0  0  0  0  0  0  0  0
    3.3311    0.3880    0.3684 O   0  0  0  0  0  0  0  0  0  0  0  0
    4.5918    1.0901   -0.4667 P   0  0  0  0  0  5  0  0  0  0  0  0
    4.6980    2.5674   -0.1598 O   0  0  0  0  0  0  0  0  0  0  0  0
    4.4754    0.8927   -2.1385 O   0  0  0  0  0  1  0  0  0  0  0  0
    6.0493    0.3714    0.0257 O   0  0  0  0  0  1  0  0  0  0  0  0
    1.0764   -0.1563    0.6512 C   0  0  2  0  0  0  0  0  0  0  0  0
    1.4567   -1.5016    0.7310 O   0  0  0  0  0  0  0  0  0  0  0  0
   -0.3112   -0.0602    0.0376 C   0  0  1  0  0  0  0  0  0  0  0  0
   -0.2095   -0.6333   -1.2309 O   0  0  0  0  0  0  0  0  0  0  0  0
   -1.2935   -0.8683    0.8231 C   0  0  1  0  0  0  0  0  0  0  0  0
   -1.4671   -0.3580    2.1112 O   0  0  0  0  0  0  0  0  0  0  0  0
   -2.6016   -0.9636    0.0874 C   0  0  2  0  0  0  0  0  0  0  0  0
   -2.4480   -1.4605   -1.2002 O   0  0  0  0  0  0  0  0  0  0  0  0
   -3.3704    0.3358    0.0460 C   0  0  0  0  0  0  0  0  0  0  0  0
   -2.7580    1.3210   -0.7131 O   0  0  0  0  0  0  0  0  0  0  0  0
  1  2  1  0
  2  3  1  0
  3  4  2  0
  3  5  1  0
  3  6  1  0
  1  7  1  0
  7  8  1  6
  7  9  1  0
  9 10  1  6
  9 11  1  0
 11 12  1  1
 11 13  1  0
 13 14  1  6
 13 15  1  0
 15 16  1  0
M  CHG  2   5  -1   6  -1
M  END

