
     RDKit          3D

 12 11  0  0  0  0  0  0  0  0999 V2000
    2.4828    0.9343    0.6102 C   0  0  0  0  0  0  0  0  0  0  0  0
    1.9472   -0.1011   -0.3255 C   0  0  1  0  0  0  0  0  0  0  0  0
    0.4378    0.0857   -0.5191 C   0  0  2  0  0  0  0  0  0  0  0  0
   -0.3400   -0.2806    0.7016 C   0  0  2  0  0  0  0  0  0  0  0  0
   -1.8253   -0.3947    0.4242 C   0  0  2  0  0  0  0  0  0  0  0  0
   -2.0058   -1.2454   -0.6404 O   0  0  0  0  0  0  0  0  0  0  0  0
   -2.4525    0.9635    0.2313 C   0  0  0  0  0  0  0  0  0  0  0  0
   -3.8262    0.8760    0.0419 O   0  0  0  0  0  0  0  0  0  0  0  0
   -0.1093    0.5691    1.7696 O   0  0  0  0  0  0  0  0  0  0  0  0
    0.0746   -0.8383   -1.5408 O   0  0  0  0  0  0  0  0  0  0  0  0
    2.5375    0.1716   -1.5950 O   0  0  0  0  0  0  0  0  0  0  0  0
    3.8839    0.8202    0.6145 O   0  0  0  0  0  0  0  0  0  0  0  0
  1  2  1  0
  2  3  1  0
  3  4  1  0
  4  5  1  0
  5  6  1  6
  5  7  1  0
  7  8  1  0
  4  9  1  1
  3 10  1  6
  2 11  1  6
  1 12  1  0
M  END

