
     RDKit          3D

 16 16  0  0  0  0  0  0  0  0999 V2000
    2.0380    0.4126   -0.1857 C   0  0  0  0  0  0  0  0  0  0  0  0
    2.6744   -0.5006    0.6379 O   0  0  0  0  0  0  0  0  0  0  0  0
    4.0171   -1.2181   -0.0625 P   0  0  0  0  0  5  0  0  0  0  0  0
    5.2339   -1.3001    1.1237 O   0  0  0  0  0  1  0  0  0  0  0  0
    4.5329   -0.4377   -1.2369 O   0  0  0  0  0  0  0  0  0  0  0  0
    3.7031   -2.8166   -0.5527 O   0  0  0  0  0  1  0  0  0  0  0  0
    0.5568    0.0524   -0.2656 C   0  0  1  0  0  0  0  0  0  0  0  0
    0.2535   -0.6431    0.8749 O   0  0  0  0  0  0  0  0  0  0  0  0
   -1.0695   -0.7527    1.1947 C   0  0  0  0  0  0  0  0  0  0  0  0
   -1.4307   -0.0445    2.3496 O   0  0  0  0  0  0  0  0  0  0  0  0
   -2.0338   -0.3741    0.1147 C   0  0  2  0  0  0  0  0  0  0  0  0
   -2.1269   -1.3845   -0.9072 N   0  0  0  0  0  4  0  0  0  0  0  0
   -1.7234    0.9972   -0.4043 C   0  0  1  0  0  0  0  0  0  0  0  0
   -2.3406    1.9177    0.4592 O   0  0  0  0  0  0  0  0  0  0  0  0
   -0.2416    1.3223   -0.3515 C   0  0  2  0  0  0  0  0  0  0  0  0
    0.0819    2.0712   -1.4753 O   0  0  0  0  0  0  0  0  0  0  0  0
  1  2  1  0
  2  3  1  0
  3  4  1  0
  3  5  2  0
  3  6  1  0
  7  1  1  1
  7  8  1  0
  8  9  1  0
  9 10  1  0
  9 11  1  0
 11 12  1  6
 11 13  1  0
 13 14  1  1
 13 15  1  0
 15 16  1  6
 15  7  1  0
M  CHG  3   4  -1   6  -1  12   1
M  END

