
     RDKit          3D

 10  9  0  0  0  0  0  0  0  0999 V2000
   -1.8726   -0.6162    1.0039 C   0  0  0  0  0  0  0  0  0  0  0  0
   -1.1632    0.1221   -0.0448 N   0  0  0  0  0  4  0  0  0  0  0  0
    0.2098    0.3636    0.3464 C   0  0  0  0  0  0  0  0  0  0  0  0
    1.1315   -0.7174   -0.0922 C   0  0  0  0  0  0  0  0  0  0  0  0
    2.5514   -0.5433    0.3027 C   0  0  0  0  0  0  0  0  0  0  0  0
    3.2456    0.6434   -0.1854 C   0  0  0  0  0  0  0  0  0  0  0  0
    2.6512    1.8796   -0.2803 O   0  0  0  0  0  1  0  0  0  0  0  0
    4.4652    0.5723   -0.5518 O   0  0  0  0  0  0  0  0  0  0  0  0
   -1.3184   -0.6249   -1.2585 C   0  0  0  0  0  0  0  0  0  0  0  0
   -1.8306    1.4037   -0.2161 C   0  0  0  0  0  0  0  0  0  0  0  0
  1  2  1  0
  2  3  1  0
  3  4  1  0
  4  5  1  0
  5  6  1  0
  6  7  1  0
  6  8  2  0
  2  9  1  0
  2 10  1  0
M  CHG  2   2   1   7  -1
M  END

