
     RDKit          3D

 28 30  0  0  0  0  0  0  0  0999 V2000
    2.0988   -1.0380   -0.1745 C   0  0  0  0  0  0  0  0  0  0  0  0
    3.3643   -0.9239   -0.7955 O   0  0  0  0  0  0  0  0  0  0  0  0
    4.5227   -1.0283    0.4138 P   0  0  0  0  0  5  0  0  0  0  0  0
    3.9116   -0.9287    1.7983 O   0  0  0  0  0  0  0  0  0  0  0  0
    5.3841   -2.4537    0.2369 O   0  0  0  0  0  1  0  0  0  0  0  0
    5.5719    0.3079    0.2590 O   0  0  0  0  0  0  0  0  0  0  0  0
    7.0013    0.0556    1.1283 P   0  0  0  0  0  5  0  0  0  0  0  0
    7.8368   -1.0107    0.4620 O   0  0  0  0  0  0  0  0  0  0  0  0
    7.8761    1.4939    1.1139 O   0  0  0  0  0  1  0  0  0  0  0  0
    6.6609   -0.3493    2.7242 O   0  0  0  0  0  1  0  0  0  0  0  0
    1.0104   -0.9468   -1.2520 C   0  0  1  0  0  0  0  0  0  0  0  0
   -0.1939   -1.0607   -0.6187 O   0  0  0  0  0  0  0  0  0  0  0  0
   -0.8946    0.1083   -0.7277 C   0  0  1  0  0  0  0  0  0  0  0  0
   -1.7367    0.4028    0.4080 N   0  0  0  0  0  0  0  0  0  0  0  0
   -3.0599    0.0872    0.5240 C   0  0  0  0  0  0  0  0  0  0  0  0
   -3.8689   -0.5464   -0.3498 N   0  0  0  0  0  0  0  0  0  0  0  0
   -5.1619   -0.7711   -0.0570 C   0  0  0  0  0  0  0  0  0  0  0  0
   -6.0383   -1.4406   -0.9676 N   0  0  0  0  0  0  0  0  0  0  0  0
   -5.6028   -0.3332    1.1460 N   0  0  0  0  0  0  0  0  0  0  0  0
   -4.8572    0.2940    2.0441 C   0  0  0  0  0  0  0  0  0  0  0  0
   -5.2694    0.6984    3.1580 O   0  0  0  0  0  0  0  0  0  0  0  0
   -3.5169    0.5304    1.7480 C   0  0  0  0  0  0  0  0  0  0  0  0
   -2.4918    1.1020    2.3596 N   0  0  0  0  0  0  0  0  0  0  0  0
   -1.4169    1.0271    1.5552 C   0  0  0  0  0  0  0  0  0  0  0  0
    0.1523    1.2096   -0.9360 C   0  0  2  0  0  0  0  0  0  0  0  0
   -0.3703    2.3086   -1.5713 O   0  0  0  0  0  0  0  0  0  0  0  0
    1.1168    0.4354   -1.8419 C   0  0  2  0  0  0  0  0  0  0  0  0
    0.6016    0.4546   -3.1205 O   0  0  0  0  0  0  0  0  0  0  0  0
  1  2  1  0
  2  3  1  0
  3  4  2  0
  3  5  1  0
  3  6  1  0
  6  7  1  0
  7  8  2  0
  7  9  1  0
  7 10  1  0
 11  1  1  1
 11 12  1  0
 12 13  1  0
 13 14  1  1
 14 15  1  0
 15 16  1  0
 16 17  2  0
 17 18  1  0
 17 19  1  0
 19 20  1  0
 20 21  2  0
 20 22  1  0
 22 23  1  0
 23 24  2  0
 13 25  1  0
 25 26  1  6
 25 27  1  0
 27 28  1  6
 24 14  1  0
 22 15  2  0
 27 11  1  0
M  CHG  3   5  -1   9  -1  10  -1
M  END

