
     RDKit          3D

 40 42  0  0  0  0  0  0  0  0999 V2000
    1.0357   -0.8828   -1.4026 C   0  0  0  0  0  0  0  0  0  0  0  0
    1.7977    0.3255   -1.2007 O   0  0  0  0  0  0  0  0  0  0  0  0
    3.3666   -0.1318   -0.8193 P   0  0  0  0  0  5  0  0  0  0  0  0
    3.6004   -1.5773   -0.9756 O   0  0  0  0  0  0  0  0  0  0  0  0
    3.4062    0.0866    0.9590 O   0  0  0  0  0  1  0  0  0  0  0  0
    4.5599    0.8819   -1.3295 O   0  0  0  0  0  0  0  0  0  0  0  0
    5.8405    0.8643   -0.1690 P   0  0  0  0  0  5  0  0  0  0  0  0
    6.0906    2.2558    0.3233 O   0  0  0  0  0  0  0  0  0  0  0  0
    5.4009   -0.0635    1.1928 O   0  0  0  0  0  1  0  0  0  0  0  0
    7.1696    0.2017   -0.9378 O   0  0  0  0  0  0  0  0  0  0  0  0
    8.5842    0.3632   -0.0291 P   0  0  0  0  0  5  0  0  0  0  0  0
    8.2696    0.5053    1.4469 O   0  0  0  0  0  0  0  0  0  0  0  0
    9.4964   -1.0461   -0.2510 O   0  0  0  0  0  1  0  0  0  0  0  0
    9.5203    1.6591   -0.5738 O   0  0  0  0  0  1  0  0  0  0  0  0
   -0.1304   -0.6531   -0.5908 C   0  0  1  0  0  0  0  0  0  0  0  0
   -1.0222    0.3683   -0.7249 O   0  0  0  0  0  0  0  0  0  0  0  0
   -1.5767    0.3426    0.5626 C   0  0  1  0  0  0  0  0  0  0  0  0
   -2.4920    1.3413    0.9737 N   0  0  0  0  0  0  0  0  0  0  0  0
   -3.2582    1.2418    2.0410 C   0  0  0  0  0  0  0  0  0  0  0  0
   -3.9663    2.3690    2.2371 N   0  0  0  0  0  0  0  0  0  0  0  0
   -3.6575    3.2455    1.2268 C   0  0  0  0  0  0  0  0  0  0  0  0
   -4.1898    4.4915    0.9213 C   0  0  0  0  0  0  0  0  0  0  0  0
   -5.0034    5.0632    1.6356 O   0  0  0  0  0  0  0  0  0  0  0  0
   -3.7024    5.0028   -0.2517 N   0  0  0  0  0  0  0  0  0  0  0  0
   -2.7904    4.3365   -1.0172 C   0  0  0  0  0  0  0  0  0  0  0  0
   -2.5016    4.8897   -2.3315 N   0  0  0  0  0  0  0  0  0  0  0  0
   -2.2850    3.1345   -0.7010 N   0  0  0  0  0  0  0  0  0  0  0  0
   -2.7470    2.5806    0.4519 C   0  0  0  0  0  0  0  0  0  0  0  0
   -1.8636   -1.0725    0.9161 C   0  0  2  0  0  0  0  0  0  0  0  0
   -1.2074   -1.4243    2.0992 O   0  0  0  0  0  0  0  0  0  0  0  0
   -1.0242   -1.8002   -0.2093 C   0  0  2  0  0  0  0  0  0  0  0  0
   -0.4368   -2.9002    0.3151 O   0  0  0  0  0  0  0  0  0  0  0  0
   -1.1872   -4.2457   -0.4657 P   0  0  0  0  0  5  0  0  0  0  0  0
   -0.1342   -4.9659   -1.5591 O   0  0  0  0  0  1  0  0  0  0  0  0
   -1.7382   -5.3457    0.6600 O   0  0  0  0  0  0  0  0  0  0  0  0
   -3.0823   -6.1715    0.0157 P   0  0  0  0  0  5  0  0  0  0  0  0
   -4.1444   -5.0824   -0.7304 O   0  0  0  0  0  1  0  0  0  0  0  0
   -2.4810   -7.2366   -1.1503 O   0  0  0  0  0  1  0  0  0  0  0  0
   -3.7369   -6.9525    1.1012 O   0  0  0  0  0  0  0  0  0  0  0  0
   -2.4277   -3.7354   -1.2151 O   0  0  0  0  0  0  0  0  0  0  0  0
  1  2  1  0
  2  3  1  0
  3  4  2  0
  3  5  1  0
  3  6  1  0
  6  7  1  0
  7  8  2  0
  7  9  1  0
  7 10  1  0
 10 11  1  0
 11 12  2  0
 11 13  1  0
 11 14  1  0
 15  1  1  6
 15 16  1  0
 16 17  1  0
 17 18  1  6
 18 19  1  0
 19 20  2  0
 20 21  1  0
 21 22  1  0
 22 23  2  0
 22 24  1  0
 24 25  1  0
 25 26  1  0
 25 27  2  0
 27 28  1  0
 17 29  1  0
 29 30  1  1
 29 31  1  0
 31 32  1  1
 32 33  1  0
 33 34  1  0
 33 35  1  0
 35 36  1  0
 36 37  1  0
 36 38  1  0
 36 39  2  0
 33 40  2  0
 28 18  1  0
 28 21  2  0
 31 15  1  0
M  CHG  7   5  -1   9  -1  13  -1  14  -1  34  -1  37  -1  38  -1
M  END

