
     RDKit          3D

 15 14  0  0  0  0  0  0  0  0999 V2000
   -4.9904   -0.7927   -0.7358 C   0  0  0  0  0  0  0  0  0  0  0  0
   -4.4733   -1.8378   -1.1482 O   0  0  0  0  0  0  0  0  0  0  0  0
   -4.1505    0.4327   -0.6885 C   0  0  0  0  0  0  0  0  0  0  0  0
   -2.8893    0.1453    0.0935 C   0  0  0  0  0  0  0  0  0  0  0  0
   -2.0596    1.4106    0.1326 C   0  0  0  0  0  0  0  0  0  0  0  0
   -0.8394    1.2732    0.8740 N   0  0  0  0  0  0  0  0  0  0  0  0
    0.1572    0.3273    0.5230 C   0  0  0  0  0  0  0  0  0  0  0  0
   -0.0483   -0.4059   -0.4684 O   0  0  0  0  0  0  0  0  0  0  0  0
    1.3772    0.2542    1.3360 C   0  0  0  0  0  0  0  0  0  0  0  0
    2.3825   -0.7467    0.8963 C   0  0  0  0  0  0  0  0  0  0  0  0
    2.9044   -0.5510   -0.4906 C   0  0  2  0  0  0  0  0  0  0  0  0
    3.8808   -1.6179   -0.7436 N   0  0  0  0  0  4  0  0  0  0  0  0
    3.6245    0.7244   -0.6702 C   0  0  0  0  0  0  0  0  0  0  0  0
    3.8935    1.5028    0.2712 O   0  0  0  0  0  0  0  0  0  0  0  0
    4.0331    1.0958   -1.9495 O   0  0  0  0  0  1  0  0  0  0  0  0
  1  2  2  0
  1  3  1  0
  3  4  1  0
  4  5  1  0
  5  6  1  0
  6  7  1  0
  7  8  2  0
  7  9  1  0
  9 10  1  0
 10 11  1  0
 11 12  1  1
 11 13  1  0
 13 14  2  0
 13 15  1  0
M  CHG  2  12   1  15  -1
M  END

