
     RDKit          3D

 14 13  0  0  0  0  0  0  0  0999 V2000
   -2.6239    1.0664    0.1945 C   0  0  0  0  0  0  0  0  0  0  0  0
   -3.4411    1.7511   -0.4662 O   0  0  0  0  0  0  0  0  0  0  0  0
   -1.4174    0.5154   -0.4841 C   0  0  2  0  0  0  0  0  0  0  0  0
   -1.9007   -0.4739   -1.3715 O   0  0  0  0  0  0  0  0  0  0  0  0
   -0.5390   -0.0843    0.5459 C   0  0  1  0  0  0  0  0  0  0  0  0
   -1.2914   -1.0241    1.2557 O   0  0  0  0  0  0  0  0  0  0  0  0
    0.7026   -0.7428    0.0832 C   0  0  2  0  0  0  0  0  0  0  0  0
    1.4038   -1.1919    1.2053 O   0  0  0  0  0  0  0  0  0  0  0  0
    1.6353    0.0718   -0.7373 C   0  0  2  0  0  0  0  0  0  0  0  0
    2.7099   -0.7377   -1.1129 O   0  0  0  0  0  0  0  0  0  0  0  0
    2.2165    1.2198    0.0086 C   0  0  0  0  0  0  0  0  0  0  0  0
    2.9135    2.0338   -0.6836 O   0  0  0  0  0  0  0  0  0  0  0  0
    2.0370    1.4252    1.3571 O   0  0  0  0  0  1  0  0  0  0  0  0
   -2.8852    0.8526    1.5395 O   0  0  0  0  0  1  0  0  0  0  0  0
  1  2  2  0
  1  3  1  0
  3  4  1  6
  3  5  1  0
  5  6  1  6
  5  7  1  0
  7  8  1  1
  7  9  1  0
  9 10  1  1
  9 11  1  0
 11 12  2  0
 11 13  1  0
  1 14  1  0
M  CHG  2  13  -1  14  -1
M  END

