
     RDKit          3D

 13 13  0  0  0  0  0  0  0  0999 V2000
    0.2015   -0.9881    0.6704 C   0  0  1  0  0  0  0  0  0  0  0  0
    0.6931   -2.1965    1.1388 O   0  0  0  0  0  0  0  0  0  0  0  0
    1.3243    0.0298    0.4699 C   0  0  1  0  0  0  0  0  0  0  0  0
    2.1114   -0.3041   -0.6247 O   0  0  0  0  0  0  0  0  0  0  0  0
    0.5840    1.3483    0.1976 C   0  0  0  0  0  0  0  0  0  0  0  0
    1.4336    2.4197    0.2060 O   0  0  0  0  0  0  0  0  0  0  0  0
   -0.0375    1.1713   -1.0374 O   0  0  0  0  0  0  0  0  0  0  0  0
   -1.0635    0.2629   -0.9988 C   0  0  2  0  0  0  0  0  0  0  0  0
   -2.2323    0.7234   -0.2216 C   0  0  0  0  0  0  0  0  0  0  0  0
   -2.5287    0.2423    0.8918 O   0  0  0  0  0  0  0  0  0  0  0  0
   -3.0649    1.7348   -0.7155 O   0  0  0  0  0  1  0  0  0  0  0  0
   -0.6723   -1.1114   -0.5287 C   0  0  1  0  0  0  0  0  0  0  0  0
   -0.1641   -1.8997   -1.5373 O   0  0  0  0  0  0  0  0  0  0  0  0
  1  2  1  6
  1  3  1  0
  3  4  1  6
  3  5  1  0
  5  6  1  0
  5  7  1  0
  7  8  1  0
  8  9  1  1
  9 10  2  0
  9 11  1  0
  8 12  1  0
 12 13  1  6
 12  1  1  0
M  CHG  1  11  -1
M  END

