
     RDKit          3D

  9  8  0  0  0  0  0  0  0  0999 V2000
    1.3428   -0.3485    0.2335 C   0  0  0  0  0  0  0  0  0  0  0  0
    0.3682    0.5652   -0.4540 C   0  0  0  0  0  0  0  0  0  0  0  0
   -1.0305    0.2289    0.0617 C   0  0  2  0  0  0  0  0  0  0  0  0
   -1.3423   -1.1336   -0.2334 N   0  0  0  0  0  4  0  0  0  0  0  0
   -1.9622    1.1750   -0.6035 C   0  0  0  0  0  0  0  0  0  0  0  0
   -2.0191    2.5078   -0.2198 O   0  0  0  0  0  1  0  0  0  0  0  0
   -2.7137    0.7932   -1.5210 O   0  0  0  0  0  0  0  0  0  0  0  0
    2.7259   -0.0717   -0.2258 C   0  0  0  0  0  0  0  0  0  0  0  0
    3.6435   -0.7254    0.2331 O   0  0  0  0  0  0  0  0  0  0  0  0
  1  2  1  0
  2  3  1  0
  3  4  1  6
  3  5  1  0
  5  6  1  0
  5  7  2  0
  1  8  1  0
  8  9  2  0
M  CHG  2   4   1   6  -1
M  END

