
     RDKit          3D

 16 15  0  0  0  0  0  0  0  0999 V2000
   -3.7023    0.2030   -1.6153 C   0  0  0  0  0  0  0  0  0  0  0  0
   -2.7438    1.5663   -2.3078 S   0  0  0  0  0  0  0  0  0  0  0  0
   -3.1068   -0.2268   -0.2838 C   0  0  1  0  0  0  0  0  0  0  0  0
   -3.8820   -1.3491    0.3038 C   0  0  0  0  0  0  0  0  0  0  0  0
   -4.8171   -2.0876   -0.3931 O   0  0  0  0  0  1  0  0  0  0  0  0
   -3.6715   -1.6445    1.5147 O   0  0  0  0  0  0  0  0  0  0  0  0
   -1.7393   -0.6782   -0.4525 N   0  0  0  0  0  0  0  0  0  0  0  0
   -0.6467   -0.0457    0.1861 C   0  0  0  0  0  0  0  0  0  0  0  0
   -0.8531    0.9380    0.9246 O   0  0  0  0  0  0  0  0  0  0  0  0
    0.7304   -0.5332   -0.0095 C   0  0  0  0  0  0  0  0  0  0  0  0
    1.6857    0.3162    0.7794 C   0  0  0  0  0  0  0  0  0  0  0  0
    3.1177   -0.1131    0.6378 C   0  0  2  0  0  0  0  0  0  0  0  0
    3.9303    0.7822    1.4434 N   0  0  0  0  0  4  0  0  0  0  0  0
    3.5656   -0.1220   -0.7657 C   0  0  0  0  0  0  0  0  0  0  0  0
    3.2066   -1.1199   -1.6532 O   0  0  0  0  0  1  0  0  0  0  0  0
    4.2992    0.8040   -1.1809 O   0  0  0  0  0  0  0  0  0  0  0  0
  1  2  1  0
  3  1  1  6
  3  4  1  0
  4  5  1  0
  4  6  2  0
  3  7  1  0
  7  8  1  0
  8  9  2  0
  8 10  1  0
 10 11  1  0
 11 12  1  0
 12 13  1  1
 12 14  1  0
 14 15  1  0
 14 16  2  0
M  CHG  3   5  -1  13   1  15  -1
M  END

