
     RDKit          3D

  5  4  0  0  0  0  0  0  0  0999 V2000
   -0.0488   -0.4585    0.3280 C   0  0  0  0  0  0  0  0  0  0  0  0
   -0.9681    0.5664   -0.0845 N   0  0  0  0  0  4  0  0  0  0  0  0
    1.3116   -0.2753   -0.2231 C   0  0  0  0  0  0  0  0  0  0  0  0
    1.6878    0.7553   -1.0453 O   0  0  0  0  0  1  0  0  0  0  0  0
    2.1782   -1.1286    0.0887 O   0  0  0  0  0  0  0  0  0  0  0  0
  1  2  1  0
  1  3  1  0
  3  4  1  0
  3  5  2  0
M  CHG  2   2   1   4  -1
M  END

