
     RDKit          3D

  6  5  0  0  0  0  0  0  0  0999 V2000
   -1.2093   -0.6482   -0.1500 C   0  0  0  0  0  0  0  0  0  0  0  0
   -1.8882   -0.5299   -1.1497 O   0  0  0  0  0  0  0  0  0  0  0  0
   -0.3140    0.4530    0.2596 C   0  0  2  0  0  0  0  0  0  0  0  0
   -0.3789    1.5381   -0.6123 O   0  0  0  0  0  0  0  0  0  0  0  0
    1.1061   -0.0072    0.4791 C   0  0  0  0  0  0  0  0  0  0  0  0
    1.6391   -0.3851   -0.7501 O   0  0  0  0  0  0  0  0  0  0  0  0
  1  2  2  0
  1  3  1  0
  3  4  1  6
  3  5  1  0
  5  6  1  0
M  END

