
     RDKit          3D

  6  5  0  0  0  0  0  0  0  0999 V2000
    1.0525    0.1640    0.1592 C   0  0  0  0  0  0  0  0  0  0  0  0
   -0.1152   -0.6695   -0.3171 C   0  0  0  0  0  0  0  0  0  0  0  0
   -0.4539   -1.5678    0.6961 O   0  0  0  0  0  0  0  0  0  0  0  0
   -1.2949    0.2573   -0.5668 C   0  0  0  0  0  0  0  0  0  0  0  0
   -1.6286    0.9679    0.5540 O   0  0  0  0  0  0  0  0  0  0  0  0
    1.4683    1.0881   -0.7697 O   0  0  0  0  0  0  0  0  0  0  0  0
  1  2  1  0
  2  3  1  0
  2  4  1  0
  4  5  1  0
  1  6  1  0
M  END

