
     RDKit          3D

 18 18  0  0  0  0  0  0  0  0999 V2000
   -2.9051   -0.9163   -0.6521 C   0  0  0  0  0  0  0  0  0  0  0  0
   -2.1806    0.3062   -0.1313 C   0  0  2  0  0  0  0  0  0  0  0  0
   -0.8494   -0.1621    0.4543 C   0  0  1  0  0  0  0  0  0  0  0  0
   -0.1189   -0.7381   -0.5529 O   0  0  0  0  0  0  0  0  0  0  0  0
    1.2388   -0.7665   -0.3519 C   0  0  2  0  0  0  0  0  0  0  0  0
    1.5238   -0.6265    1.1260 C   0  0  2  0  0  0  0  0  0  0  0  0
    1.2223    0.8183    1.4839 C   0  0  2  0  0  0  0  0  0  0  0  0
   -0.2072    1.0607    1.0572 C   0  0  2  0  0  0  0  0  0  0  0  0
   -0.9325    1.3702    2.2184 O   0  0  0  0  0  0  0  0  0  0  0  0
    2.0744    1.6308    0.7309 O   0  0  0  0  0  0  0  0  0  0  0  0
    2.8160   -0.9915    1.4623 O   0  0  0  0  0  0  0  0  0  0  0  0
    1.7977    0.2685   -1.0836 O   0  0  0  0  0  0  0  0  0  0  0  0
    2.8901   -0.2307   -2.2423 P   0  0  0  0  0  5  0  0  0  0  0  0
    4.1824   -1.1077   -1.6022 O   0  0  0  0  0  1  0  0  0  0  0  0
    2.2418   -1.0027   -3.3704 O   0  0  0  0  0  0  0  0  0  0  0  0
    3.5594    1.1776   -2.9378 O   0  0  0  0  0  1  0  0  0  0  0  0
   -2.9421    0.8957    0.8733 O   0  0  0  0  0  0  0  0  0  0  0  0
   -4.1396   -0.6217   -1.1759 O   0  0  0  0  0  0  0  0  0  0  0  0
  1  2  1  0
  2  3  1  0
  3  4  1  6
  4  5  1  0
  5  6  1  0
  6  7  1  0
  7  8  1  0
  8  9  1  1
  7 10  1  6
  6 11  1  6
  5 12  1  6
 12 13  1  0
 13 14  1  0
 13 15  2  0
 13 16  1  0
  2 17  1  1
  1 18  1  0
  8  3  1  0
M  CHG  2  14  -1  16  -1
M  END

