
     RDKit          3D

 20 19  0  0  0  0  0  0  0  0999 V2000
   -2.1257    1.8328   -0.4101 C   0  0  0  0  0  0  0  0  0  0  0  0
   -1.4453    3.5075   -0.1769 S   0  0  0  0  0  0  0  0  0  0  0  0
   -1.7754    1.0382    0.8168 C   0  0  1  0  0  0  0  0  0  0  0  0
   -2.2451   -0.3481    0.8077 C   0  0  0  0  0  0  0  0  0  0  0  0
   -3.6126   -0.7206    0.6641 N   0  0  0  0  0  0  0  0  0  0  0  0
   -4.0471   -2.0808    0.6582 C   0  0  0  0  0  0  0  0  0  0  0  0
   -5.5095   -2.2294    0.4962 C   0  0  0  0  0  0  0  0  0  0  0  0
   -6.0266   -3.5130    0.4777 O   0  0  0  0  0  1  0  0  0  0  0  0
   -6.3082   -1.2733    0.3750 O   0  0  0  0  0  0  0  0  0  0  0  0
   -1.4166   -1.2817    0.9316 O   0  0  0  0  0  0  0  0  0  0  0  0
   -0.3387    1.0518    0.9554 N   0  0  0  0  0  0  0  0  0  0  0  0
    0.4555    0.3853   -0.0034 C   0  0  0  0  0  0  0  0  0  0  0  0
   -0.0077   -0.2354   -0.9965 O   0  0  0  0  0  0  0  0  0  0  0  0
    1.9503    0.4041    0.1503 C   0  0  0  0  0  0  0  0  0  0  0  0
    2.5919   -0.3552   -0.9573 C   0  0  0  0  0  0  0  0  0  0  0  0
    4.0786   -0.3873   -0.8732 C   0  0  2  0  0  0  0  0  0  0  0  0
    4.5134   -1.0085    0.3841 N   0  0  0  0  0  4  0  0  0  0  0  0
    4.7660    0.8816   -1.0558 C   0  0  0  0  0  0  0  0  0  0  0  0
    4.1385    2.1101   -0.9940 O   0  0  0  0  0  1  0  0  0  0  0  0
    6.0061    0.8916   -1.2854 O   0  0  0  0  0  0  0  0  0  0  0  0
  1  2  1  0
  3  1  1  6
  3  4  1  0
  4  5  1  0
  5  6  1  0
  6  7  1  0
  7  8  1  0
  7  9  2  0
  4 10  2  0
  3 11  1  0
 11 12  1  0
 12 13  2  0
 12 14  1  0
 14 15  1  0
 15 16  1  0
 16 17  1  1
 16 18  1  0
 18 19  1  0
 18 20  2  0
M  CHG  3   8  -1  17   1  19  -1
M  END

