
     RDKit          3D

 29 28  0  0  0  0  0  0  0  0999 V2000
   -7.9162   -1.6879    1.5274 C   0  0  0  0  0  0  0  0  0  0  0  0
   -7.7214   -2.8089    0.6572 N   0  0  0  0  0  4  0  0  0  0  0  0
   -6.7879   -1.4666    2.4974 C   0  0  0  0  0  0  0  0  0  0  0  0
   -5.4745   -1.2162    1.7928 C   0  0  0  0  0  0  0  0  0  0  0  0
   -5.6416   -0.0353    0.9769 N   0  0  0  0  0  4  0  0  0  0  0  0
   -4.3607    0.5300    0.5686 C   0  0  0  0  0  0  0  0  0  0  0  0
   -4.6133    1.3292   -0.6816 C   0  0  0  0  0  0  0  0  0  0  0  0
   -3.3530    1.9753   -1.2150 C   0  0  0  0  0  0  0  0  0  0  0  0
   -2.7355    2.9197   -0.2177 C   0  0  0  0  0  0  0  0  0  0  0  0
   -1.5485    3.4921   -0.7952 N   0  0  0  0  0  0  0  0  0  0  0  0
   -0.4433    2.6974   -1.1977 C   0  0  0  0  0  0  0  0  0  0  0  0
   -0.4611    1.4476   -1.0602 O   0  0  0  0  0  0  0  0  0  0  0  0
    0.7794    3.3049   -1.7971 C   0  0  0  0  0  0  0  0  0  0  0  0
    1.7392    2.2878   -2.1100 N   0  0  0  0  0  0  0  0  0  0  0  0
    2.2479    1.4682   -1.0635 C   0  0  0  0  0  0  0  0  0  0  0  0
    1.8832    1.6106    0.1151 O   0  0  0  0  0  0  0  0  0  0  0  0
    3.2450    0.4181   -1.4225 C   0  0  2  0  0  0  0  0  0  0  0  0
    2.6485   -0.4746   -2.4613 C   0  0  0  0  0  0  0  0  0  0  0  0
    3.7368   -1.7928   -2.9963 S   0  0  0  0  0  0  0  0  0  0  0  0
    3.6146   -0.2828   -0.2070 N   0  0  0  0  0  0  0  0  0  0  0  0
    4.9351   -0.1986    0.3417 C   0  0  0  0  0  0  0  0  0  0  0  0
    5.7635    0.5071   -0.2723 O   0  0  0  0  0  0  0  0  0  0  0  0
    5.2819   -0.9118    1.5665 C   0  0  0  0  0  0  0  0  0  0  0  0
    6.7223   -0.9997    1.8922 C   0  0  0  0  0  0  0  0  0  0  0  0
    7.5606   -1.8024    0.9854 C   0  0  2  0  0  0  0  0  0  0  0  0
    8.9522   -1.7038    1.5082 N   0  0  0  0  0  4  0  0  0  0  0  0
    7.5351   -1.5809   -0.4388 C   0  0  0  0  0  0  0  0  0  0  0  0
    6.5474   -2.1724   -1.2324 O   0  0  0  0  0  1  0  0  0  0  0  0
    8.4229   -0.8424   -0.9903 O   0  0  0  0  0  0  0  0  0  0  0  0
  1  2  1  0
  1  3  1  0
  3  4  1  0
  4  5  1  0
  5  6  1  0
  6  7  1  0
  7  8  1  0
  8  9  1  0
  9 10  1  0
 10 11  1  0
 11 12  2  0
 11 13  1  0
 13 14  1  0
 14 15  1  0
 15 16  2  0
 15 17  1  0
 17 18  1  6
 18 19  1  0
 17 20  1  0
 20 21  1  0
 21 22  2  0
 21 23  1  0
 23 24  1  0
 24 25  1  0
 25 26  1  1
 25 27  1  0
 27 28  1  0
 27 29  2  0
M  CHG  4   2   1   5   1  26   1  28  -1
M  END

