
     RDKit          3D

 11 12  0  0  0  0  0  0  0  0999 V2000
   -2.9632   -0.0620   -0.2164 C   0  0  0  0  0  0  0  0  0  0  0  0
   -2.0366   -0.9919   -0.4863 N   0  0  0  0  0  0  0  0  0  0  0  0
   -0.7953   -0.5332   -0.2413 C   0  0  0  0  0  0  0  0  0  0  0  0
    0.4507   -1.0694   -0.3501 N   0  0  0  0  0  0  0  0  0  0  0  0
    1.5530   -0.3596   -0.0249 C   0  0  0  0  0  0  0  0  0  0  0  0
    2.8478   -0.9223   -0.1398 N   0  0  0  0  0  0  0  0  0  0  0  0
    1.3935    0.9064    0.4152 N   0  0  0  0  0  0  0  0  0  0  0  0
    0.1677    1.4768    0.5375 C   0  0  0  0  0  0  0  0  0  0  0  0
    0.0331    2.6571    0.9487 O   0  0  0  0  0  0  0  0  0  0  0  0
   -0.9594    0.7534    0.2058 C   0  0  0  0  0  0  0  0  0  0  0  0
   -2.2784    1.0144    0.2118 N   0  0  0  0  0  0  0  0  0  0  0  0
  1  2  1  0
  2  3  1  0
  3  4  1  0
  4  5  2  0
  5  6  1  0
  5  7  1  0
  7  8  1  0
  8  9  2  0
  8 10  1  0
 10 11  1  0
 11  1  2  0
 10  3  2  0
M  END

