
     RDKit          3D

 18 17  0  0  0  0  0  0  0  0999 V2000
    6.7251    1.5813    0.0381 C   0  0  0  0  0  0  0  0  0  0  0  0
    5.3163    1.5590    0.5924 C   0  0  0  0  0  0  0  0  0  0  0  0
    4.8607    0.1750    0.9394 C   0  0  0  0  0  0  0  0  0  0  0  0
    4.8539   -0.7590   -0.2294 C   0  0  0  0  0  0  0  0  0  0  0  0
    3.9513   -0.3118   -1.3419 C   0  0  0  0  0  0  0  0  0  0  0  0
    2.5106   -0.1814   -0.9267 C   0  0  0  0  0  0  0  0  0  0  0  0
    1.9689   -1.5055   -0.4345 C   0  0  0  0  0  0  0  0  0  0  0  0
    0.5383   -1.4210   -0.0120 C   0  0  0  0  0  0  0  0  0  0  0  0
   -0.3859   -0.9932   -1.1042 C   0  0  0  0  0  0  0  0  0  0  0  0
   -1.8176   -0.9303   -0.6176 C   0  0  0  0  0  0  0  0  0  0  0  0
   -2.0155    0.0303    0.5077 C   0  0  0  0  0  0  0  0  0  0  0  0
   -3.4511    0.0358    0.9347 C   0  0  0  0  0  0  0  0  0  0  0  0
   -4.4182    0.4403   -0.1541 C   0  0  0  0  0  0  0  0  0  0  0  0
   -5.8095    0.3821    0.4963 C   0  0  0  0  0  0  0  0  0  0  0  0
   -6.8760    0.7701   -0.5032 C   0  0  0  0  0  0  0  0  0  0  0  0
   -8.1802    0.6973    0.1701 C   0  0  0  0  0  0  0  0  0  0  0  0
   -8.3361    0.3267    1.5044 O   0  0  0  0  0  1  0  0  0  0  0  0
   -9.2517    0.9781   -0.4562 O   0  0  0  0  0  0  0  0  0  0  0  0
  1  2  1  0
  2  3  1  0
  3  4  1  0
  4  5  1  0
  5  6  1  0
  6  7  1  0
  7  8  1  0
  8  9  1  0
  9 10  1  0
 10 11  1  0
 11 12  1  0
 12 13  1  0
 13 14  1  0
 14 15  1  0
 15 16  1  0
 16 17  1  0
 16 18  2  0
M  CHG  1  17  -1
M  END

