
     RDKit          3D

 10 10  0  0  0  0  0  0  0  0999 V2000
    2.0239    0.2619   -0.6490 C   0  0  0  0  0  0  0  0  0  0  0  0
    3.2153   -0.0534   -0.0972 N   0  0  0  0  0  0  0  0  0  0  0  0
    3.1322    0.0247    1.2261 C   0  0  0  0  0  0  0  0  0  0  0  0
    1.8539    0.3996    1.5202 N   0  0  0  0  0  0  0  0  0  0  0  0
    1.1568    0.5503    0.3780 C   0  0  0  0  0  0  0  0  0  0  0  0
   -0.2803    0.9546    0.2952 C   0  0  0  0  0  0  0  0  0  0  0  0
   -1.1348   -0.2953    0.3253 C   0  0  1  0  0  0  0  0  0  0  0  0
   -2.5949    0.0926    0.2424 C   0  0  0  0  0  0  0  0  0  0  0  0
   -2.8032    0.7434   -0.9792 O   0  0  0  0  0  0  0  0  0  0  0  0
   -0.7501   -1.1794   -0.7486 N   0  0  0  0  0  4  0  0  0  0  0  0
  1  2  1  0
  2  3  1  0
  3  4  2  0
  4  5  1  0
  5  6  1  0
  6  7  1  0
  7  8  1  0
  8  9  1  0
  7 10  1  6
  5  1  2  0
M  CHG  1  10   1
M  END

