
     RDKit          3D

 61 64  0  0  0  0  0  0  0  0999 V2000
    5.5298   -4.3613    1.6914 C   0  0  0  0  0  0  0  0  0  0  0  0
    4.2754   -4.7892    2.1225 O   0  0  0  0  0  0  0  0  0  0  0  0
    5.4957   -2.8661    1.4628 C   0  0  0  0  0  0  0  0  0  0  0  0
    4.4500   -2.0704    1.6560 N   0  0  0  0  0  0  0  0  0  0  0  0
    4.7346   -0.7444    1.3736 C   0  0  0  0  0  0  0  0  0  0  0  0
    3.6987    0.2723    1.4588 C   0  0  0  0  0  0  0  0  0  0  0  0
    2.7987    0.4999    0.2982 C   0  0  0  0  0  0  0  0  0  0  0  0
    1.5619   -0.1426    0.2382 N   0  0  0  0  0  0  0  0  0  0  0  0
    0.8874    0.2199   -0.8515 C   0  0  0  0  0  0  0  0  0  0  0  0
   -0.4960   -0.1485   -1.1565 C   0  0  0  0  0  0  0  0  0  0  0  0
   -1.5407    0.4318   -0.2654 C   0  0  0  0  0  0  0  0  0  0  0  0
   -2.3873   -0.3725    0.4706 N   0  0  0  0  0  0  0  0  0  0  0  0
   -3.2847    0.3923    1.1049 C   0  0  0  0  0  0  0  0  0  0  0  0
   -4.3264   -0.2011    1.9922 C   0  0  0  0  0  0  0  0  0  0  0  0
   -5.6766   -0.2018    1.4433 C   0  0  0  0  0  0  0  0  0  0  0  0
   -6.7002    0.6096    1.8565 N   0  0  0  0  0  0  0  0  0  0  0  0
   -7.7959    0.3689    1.1501 C   0  0  0  0  0  0  0  0  0  0  0  0
   -7.5516   -0.6342    0.2129 C   0  0  0  0  0  0  0  0  0  0  0  0
   -8.5371   -1.1243   -0.7500 C   0  0  0  0  0  0  0  0  0  0  0  0
   -9.2728   -2.3678   -0.4555 C   0  0  0  0  0  0  0  0  0  0  0  0
   -8.4954   -3.5887   -0.2713 C   0  0  0  0  0  0  0  0  0  0  0  0
   -8.3107   -4.1471    0.8375 O   0  0  0  0  0  0  0  0  0  0  0  0
   -7.9008   -4.2056   -1.3899 O   0  0  0  0  0  1  0  0  0  0  0  0
   -6.2080   -0.9678    0.4310 C   0  0  0  0  0  0  0  0  0  0  0  0
   -5.4939   -1.9758   -0.3689 C   0  0  0  0  0  0  0  0  0  0  0  0
   -5.2062   -3.1993    0.4000 C   0  0  0  0  0  0  0  0  0  0  0  0
   -4.5309   -4.2140   -0.3125 O   0  0  0  0  0  1  0  0  0  0  0  0
   -5.5169   -3.3638    1.5861 O   0  0  0  0  0  0  0  0  0  0  0  0
   -3.0399    1.6981    0.7979 C   0  0  0  0  0  0  0  0  0  0  0  0
   -3.7879    2.8997    1.2100 C   0  0  0  0  0  0  0  0  0  0  0  0
   -4.9367    3.2178    0.2787 C   0  0  0  0  0  0  0  0  0  0  0  0
   -5.6300    4.4238    0.7954 C   0  0  0  0  0  0  0  0  0  0  0  0
   -5.3211    5.0248    1.8527 O   0  0  0  0  0  0  0  0  0  0  0  0
   -6.6944    4.9191    0.0517 O   0  0  0  0  0  1  0  0  0  0  0  0
   -1.9259    1.6990   -0.0738 C   0  0  0  0  0  0  0  0  0  0  0  0
   -1.3456    2.9585   -0.6022 C   0  0  0  0  0  0  0  0  0  0  0  0
   -0.1409    3.3681    0.1616 C   0  0  0  0  0  0  0  0  0  0  0  0
    0.5876    4.5013   -0.1352 O   0  0  0  0  0  1  0  0  0  0  0  0
    0.2492    2.6593    1.1295 O   0  0  0  0  0  0  0  0  0  0  0  0
    1.6761    1.1032   -1.5264 C   0  0  0  0  0  0  0  0  0  0  0  0
    1.4848    1.7677   -2.8318 C   0  0  0  0  0  0  0  0  0  0  0  0
    1.9378    0.9267   -4.0027 C   0  0  0  0  0  0  0  0  0  0  0  0
    1.2608   -0.3630   -4.1397 C   0  0  0  0  0  0  0  0  0  0  0  0
    0.1422   -0.4834   -4.7229 O   0  0  0  0  0  0  0  0  0  0  0  0
    1.8173   -1.5275   -3.6326 O   0  0  0  0  0  1  0  0  0  0  0  0
    2.8796    1.2765   -0.7996 C   0  0  0  0  0  0  0  0  0  0  0  0
    3.9831    2.1545   -1.2851 C   0  0  0  0  0  0  0  0  0  0  0  0
    5.0040    1.5013   -2.0801 C   0  0  0  0  0  0  0  0  0  0  0  0
    4.9753    0.2660   -2.2868 O   0  0  0  0  0  0  0  0  0  0  0  0
    6.0384    2.2386   -2.6296 O   0  0  0  0  0  1  0  0  0  0  0  0
    6.0499   -0.7741    0.9899 C   0  0  0  0  0  0  0  0  0  0  0  0
    6.8917    0.3871    0.6773 C   0  0  0  0  0  0  0  0  0  0  0  0
    7.4364    1.0769    1.9383 C   0  0  0  0  0  0  0  0  0  0  0  0
    8.2735    2.2493    1.5259 C   0  0  0  0  0  0  0  0  0  0  0  0
    8.4549    2.5601    0.3203 O   0  0  0  0  0  0  0  0  0  0  0  0
    8.8571    3.0029    2.5216 O   0  0  0  0  0  1  0  0  0  0  0  0
    6.5149   -2.0775    1.0420 C   0  0  0  0  0  0  0  0  0  0  0  0
    7.8907   -2.5164    0.6817 C   0  0  0  0  0  0  0  0  0  0  0  0
    7.9016   -3.1720   -0.6375 C   0  0  0  0  0  0  0  0  0  0  0  0
    6.8378   -3.2908   -1.2851 O   0  0  0  0  0  0  0  0  0  0  0  0
    9.0706   -3.6632   -1.1811 O   0  0  0  0  0  1  0  0  0  0  0  0
  1  2  1  0
  1  3  1  0
  3  4  1  0
  4  5  1  0
  5  6  1  0
  6  7  1  0
  7  8  1  0
  8  9  1  0
  9 10  1  0
 10 11  1  0
 11 12  1  0
 12 13  1  0
 13 14  1  0
 14 15  1  0
 15 16  1  0
 16 17  1  0
 17 18  2  0
 18 19  1  0
 19 20  1  0
 20 21  1  0
 21 22  2  0
 21 23  1  0
 18 24  1  0
 24 25  1  0
 25 26  1  0
 26 27  1  0
 26 28  2  0
 13 29  2  0
 29 30  1  0
 30 31  1  0
 31 32  1  0
 32 33  2  0
 32 34  1  0
 29 35  1  0
 35 36  1  0
 36 37  1  0
 37 38  1  0
 37 39  2  0
  9 40  2  0
 40 41  1  0
 41 42  1  0
 42 43  1  0
 43 44  2  0
 43 45  1  0
 40 46  1  0
 46 47  1  0
 47 48  1  0
 48 49  2  0
 48 50  1  0
  5 51  2  0
 51 52  1  0
 52 53  1  0
 53 54  1  0
 54 55  2  0
 54 56  1  0
 51 57  1  0
 57 58  1  0
 58 59  1  0
 59 60  2  0
 59 61  1  0
 24 15  2  0
 35 11  2  0
 46  7  2  0
 57  3  2  0
M  CHG  8  23  -1  27  -1  34  -1  38  -1  45  -1  50  -1  56  -1  61  -1
M  END

