
     RDKit          3D

  8  7  0  0  0  0  0  0  0  0999 V2000
    1.6084   -0.6028   -0.1543 C   0  0  0  0  0  0  0  0  0  0  0  0
    2.2801    0.4955    0.3352 O   0  0  0  0  0  0  0  0  0  0  0  0
    0.3245   -0.2016   -0.8532 C   0  0  0  0  0  0  0  0  0  0  0  0
   -0.6167    0.5173    0.0699 C   0  0  2  0  0  0  0  0  0  0  0  0
   -0.9936   -0.3010    1.2038 N   0  0  0  0  0  4  0  0  0  0  0  0
   -1.8377    0.8574   -0.6962 C   0  0  0  0  0  0  0  0  0  0  0  0
   -1.8349    1.8567   -1.6320 O   0  0  0  0  0  1  0  0  0  0  0  0
   -2.8882    0.2113   -0.4753 O   0  0  0  0  0  0  0  0  0  0  0  0
  1  2  1  0
  1  3  1  0
  3  4  1  0
  4  5  1  1
  4  6  1  0
  6  7  1  0
  6  8  2  0
M  CHG  2   5   1   7  -1
M  END

