
     RDKit          3D

  7  6  0  0  0  0  0  0  0  0999 V2000
   -0.7651   -0.3108    0.5128 C   0  0  0  0  0  0  0  0  0  0  0  0
    0.2237    0.1234   -0.4883 C   0  0  0  0  0  0  0  0  0  0  0  0
   -0.1713    0.5531   -1.6050 O   0  0  0  0  0  0  0  0  0  0  0  0
    1.6259    0.0485   -0.1714 C   0  0  0  0  0  0  0  0  0  0  0  0
    2.5403    0.4552   -1.1099 O   0  0  0  0  0  1  0  0  0  0  0  0
    2.0072   -0.3753    0.9290 O   0  0  0  0  0  0  0  0  0  0  0  0
   -2.0427   -0.1572    0.0102 O   0  0  0  0  0  0  0  0  0  0  0  0
  1  2  1  0
  2  3  2  0
  2  4  1  0
  4  5  1  0
  4  6  2  0
  1  7  1  0
M  CHG  1   5  -1
M  END

