
     RDKit          3D

 10 11  0  0  0  0  0  0  0  0999 V2000
    2.4883   -0.2669    0.1237 C   0  0  0  0  0  0  0  0  0  0  0  0
    1.6525    0.7618    0.2858 N   0  0  0  0  0  0  0  0  0  0  0  0
    0.3685    0.3432    0.1013 C   0  0  0  0  0  0  0  0  0  0  0  0
   -0.8653    0.9601    0.1451 C   0  0  0  0  0  0  0  0  0  0  0  0
   -0.8548    2.1992    0.4147 O   0  0  0  0  0  0  0  0  0  0  0  0
   -2.0131    0.2856   -0.0849 N   0  0  0  0  0  0  0  0  0  0  0  0
   -1.9000   -1.0252   -0.3610 C   0  0  0  0  0  0  0  0  0  0  0  0
   -0.7214   -1.6677   -0.4144 N   0  0  0  0  0  0  0  0  0  0  0  0
    0.4339   -1.0163   -0.1888 C   0  0  0  0  0  0  0  0  0  0  0  0
    1.7404   -1.3300   -0.1615 N   0  0  0  0  0  0  0  0  0  0  0  0
  1  2  1  0
  2  3  1  0
  3  4  1  0
  4  5  2  0
  4  6  1  0
  6  7  1  0
  7  8  2  0
  8  9  1  0
  9 10  1  0
 10  1  2  0
  9  3  2  0
M  END

