
     RDKit          3D

  9  8  0  0  0  0  0  0  0  0999 V2000
    1.8003    0.3302    0.4251 C   0  0  0  0  0  0  0  0  0  0  0  0
    1.8416    1.5244    0.0953 O   0  0  0  0  0  0  0  0  0  0  0  0
    3.0759   -0.2569    0.6666 O   0  0  0  0  0  1  0  0  0  0  0  0
    0.5972   -0.4805    0.5769 C   0  0  0  0  0  0  0  0  0  0  0  0
   -0.6593    0.2000    0.3105 C   0  0  0  0  0  0  0  0  0  0  0  0
   -1.9056   -0.6272    0.4643 C   0  0  0  0  0  0  0  0  0  0  0  0
   -1.8383   -1.8272    0.8024 O   0  0  0  0  0  0  0  0  0  0  0  0
   -3.1473   -0.0711    0.2333 O   0  0  0  0  0  1  0  0  0  0  0  0
   -0.8145    1.3828   -0.0282 N   0  0  0  0  0  0  0  0  0  0  0  0
  1  2  2  0
  1  3  1  0
  1  4  1  0
  4  5  1  0
  5  6  1  0
  6  7  2  0
  6  8  1  0
  5  9  2  0
M  CHG  2   3  -1   8  -1
M  END

