
     RDKit          3D

 13 12  0  0  0  0  0  0  0  0999 V2000
    2.3285    0.7087   -0.1515 C   0  0  0  0  0  0  0  0  0  0  0  0
    3.5774    0.6333    0.4964 O   0  0  0  0  0  0  0  0  0  0  0  0
    1.6062   -0.5934    0.1141 C   0  0  2  0  0  0  0  0  0  0  0  0
    2.3944   -1.6395   -0.3914 O   0  0  0  0  0  0  0  0  0  0  0  0
    0.2618   -0.6726   -0.5792 C   0  0  1  0  0  0  0  0  0  0  0  0
   -0.3004   -1.9287   -0.2946 O   0  0  0  0  0  0  0  0  0  0  0  0
   -0.6309    0.4011   -0.0042 C   0  0  2  0  0  0  0  0  0  0  0  0
   -0.6846    0.1938    1.3760 O   0  0  0  0  0  0  0  0  0  0  0  0
   -2.0297    0.3105   -0.5973 C   0  0  1  0  0  0  0  0  0  0  0  0
   -2.5148   -0.9622   -0.3180 O   0  0  0  0  0  0  0  0  0  0  0  0
   -2.8606    1.3232    0.0829 C   0  0  0  0  0  0  0  0  0  0  0  0
   -2.8084    2.5399   -0.1986 O   0  0  0  0  0  0  0  0  0  0  0  0
   -3.7306    0.9102    1.0699 O   0  0  0  0  0  1  0  0  0  0  0  0
  1  2  1  0
  1  3  1  0
  3  4  1  6
  3  5  1  0
  5  6  1  1
  5  7  1  0
  7  8  1  1
  7  9  1  0
  9 10  1  1
  9 11  1  0
 11 12  2  0
 11 13  1  0
M  CHG  1  13  -1
M  END

