
     RDKit          3D

  7  6  0  0  0  0  0  0  0  0999 V2000
    0.1510    0.5056   -0.0179 C   0  0  0  0  0  0  0  0  0  0  0  0
    0.8739   -0.8139   -0.1418 C   0  0  0  0  0  0  0  0  0  0  0  0
    2.2347   -0.5153   -0.2820 O   0  0  0  0  0  0  0  0  0  0  0  0
   -1.5970    0.3025    0.1683 S   0  0  0  0  0  6  0  0  0  0  0  0
   -2.1899    1.6922    0.2699 O   0  0  0  0  0  0  0  0  0  0  0  0
   -2.0929   -0.3672   -1.0963 O   0  0  0  0  0  0  0  0  0  0  0  0
   -1.9883   -0.5828    1.5314 O   0  0  0  0  0  1  0  0  0  0  0  0
  1  2  1  0
  2  3  1  0
  1  4  1  0
  4  5  2  0
  4  6  2  0
  4  7  1  0
M  CHG  1   7  -1
M  END

