
     RDKit          3D

 16 16  0  0  0  0  0  0  0  0999 V2000
    2.5132   -1.3890    0.8284 C   0  0  0  0  0  0  0  0  0  0  0  0
    3.7971   -1.1443    1.3580 O   0  0  0  0  0  0  0  0  0  0  0  0
    1.9093   -0.0429    0.5343 C   0  0  1  0  0  0  0  0  0  0  0  0
    2.7472    0.5953   -0.3941 O   0  0  0  0  0  0  0  0  0  0  0  0
    0.5459   -0.1166   -0.0757 C   0  0  1  0  0  0  0  0  0  0  0  0
   -0.3893   -0.7295    0.7419 O   0  0  0  0  0  0  0  0  0  0  0  0
   -1.5848   -0.8364    0.0288 C   0  0  1  0  0  0  0  0  0  0  0  0
   -1.2562   -1.3049   -1.2411 O   0  0  0  0  0  0  0  0  0  0  0  0
   -2.5500   -1.7436    0.6450 C   0  0  0  0  0  0  0  0  0  0  0  0
   -3.0599   -1.5278    1.9186 O   0  0  0  0  0  1  0  0  0  0  0  0
   -2.9599   -2.7663    0.0375 O   0  0  0  0  0  0  0  0  0  0  0  0
   -2.2189    0.5444   -0.1852 C   0  0  0  0  0  0  0  0  0  0  0  0
   -1.2254    1.3339   -1.0032 C   0  0  2  0  0  0  0  0  0  0  0  0
    0.0763    1.3348   -0.2466 C   0  0  1  0  0  0  0  0  0  0  0  0
   -0.1845    1.7883    1.0659 O   0  0  0  0  0  0  0  0  0  0  0  0
   -1.6411    2.6346   -1.2288 O   0  0  0  0  0  0  0  0  0  0  0  0
  1  2  1  0
  1  3  1  0
  3  4  1  6
  3  5  1  0
  5  6  1  1
  6  7  1  0
  7  8  1  6
  7  9  1  0
  9 10  1  0
  9 11  2  0
  7 12  1  0
 12 13  1  0
 13 14  1  0
 14 15  1  1
 13 16  1  1
 14  5  1  0
M  CHG  1  10  -1
M  END

