
     RDKit          3D

  6  5  0  0  0  0  0  0  0  0999 V2000
   -1.1518   -0.1462   -0.4491 C   0  0  0  0  0  0  0  0  0  0  0  0
    0.0931    0.2769    0.3000 C   0  0  1  0  0  0  0  0  0  0  0  0
    1.0509   -0.8546    0.3334 C   0  0  0  0  0  0  0  0  0  0  0  0
    2.1951   -0.8169   -0.4445 O   0  0  0  0  0  1  0  0  0  0  0  0
    0.8174   -1.8324    1.0631 O   0  0  0  0  0  0  0  0  0  0  0  0
    0.6297    1.3707   -0.3806 O   0  0  0  0  0  0  0  0  0  0  0  0
  2  1  1  6
  2  3  1  0
  3  4  1  0
  3  5  2  0
  2  6  1  0
M  CHG  1   4  -1
M  END

