
     RDKit          3D

 15 14  0  0  0  0  0  0  0  0999 V2000
   -2.3682    1.8417   -0.5275 C   0  0  0  0  0  0  0  0  0  0  0  0
   -2.2284    0.4388   -1.1200 C   0  0  2  0  0  0  0  0  0  0  0  0
   -2.7550   -0.4961   -0.1187 N   0  0  0  0  0  4  0  0  0  0  0  0
   -0.7824    0.2196   -1.3392 C   0  0  0  0  0  0  0  0  0  0  0  0
   -0.2120    0.9608   -2.1797 O   0  0  0  0  0  0  0  0  0  0  0  0
   -0.0450   -0.7824   -0.6402 N   0  0  0  0  0  0  0  0  0  0  0  0
    1.3583   -1.0059   -0.8431 C   0  0  2  0  0  0  0  0  0  0  0  0
    1.6358   -2.4176   -1.1490 C   0  0  0  0  0  0  0  0  0  0  0  0
    0.6573   -3.3817   -1.0523 O   0  0  0  0  0  1  0  0  0  0  0  0
    2.7879   -2.7722   -1.5092 O   0  0  0  0  0  0  0  0  0  0  0  0
    2.0877   -0.6634    0.4617 C   0  0  0  0  0  0  0  0  0  0  0  0
    1.7949    0.7908    0.7537 C   0  0  0  0  0  0  0  0  0  0  0  0
    2.4428    1.2549    1.9944 C   0  0  0  0  0  0  0  0  0  0  0  0
    2.2614    2.4539    2.3281 O   0  0  0  0  0  0  0  0  0  0  0  0
    3.2293    0.4783    2.8137 O   0  0  0  0  0  1  0  0  0  0  0  0
  2  1  1  1
  2  3  1  0
  2  4  1  0
  4  5  2  0
  4  6  1  0
  6  7  1  0
  7  8  1  0
  8  9  1  0
  8 10  2  0
  7 11  1  1
 11 12  1  0
 12 13  1  0
 13 14  2  0
 13 15  1  0
M  CHG  3   3   1   9  -1  15  -1
M  END

