
     RDKit          3D

  5  4  0  0  0  0  0  0  0  0999 V2000
   -1.1082   -0.3274   -0.0719 C   0  0  0  0  0  0  0  0  0  0  0  0
    0.2415    0.3740   -0.1993 C   0  0  2  0  0  0  0  0  0  0  0  0
    1.2816   -0.6554   -0.0607 C   0  0  0  0  0  0  0  0  0  0  0  0
    2.0740   -0.6450    0.8460 O   0  0  0  0  0  0  0  0  0  0  0  0
    0.3642    1.2767    0.8492 O   0  0  0  0  0  0  0  0  0  0  0  0
  2  1  1  1
  2  3  1  0
  3  4  2  0
  2  5  1  0
M  END

