
     RDKit          3D

 23 24  0  0  0  0  0  0  0  0999 V2000
    3.3019   -2.1668    0.0379 C   0  0  0  0  0  0  0  0  0  0  0  0
    4.3596   -1.5089    0.6702 O   0  0  0  0  0  0  0  0  0  0  0  0
    2.3271   -1.1949   -0.5795 C   0  0  2  0  0  0  0  0  0  0  0  0
    2.9773   -0.3459   -1.6670 C   0  0  2  0  0  0  0  0  0  0  0  0
    4.3375   -0.6349   -1.6444 O   0  0  0  0  0  0  0  0  0  0  0  0
    2.8267    1.1236   -1.3026 C   0  0  2  0  0  0  0  0  0  0  0  0
    3.7049    1.4379   -0.2712 O   0  0  0  0  0  0  0  0  0  0  0  0
    1.4047    1.5020   -0.9813 C   0  0  1  0  0  0  0  0  0  0  0  0
    0.6883    1.7919   -2.1566 O   0  0  0  0  0  0  0  0  0  0  0  0
    0.7463    0.4167   -0.1941 C   0  0  2  0  0  0  0  0  0  0  0  0
   -0.1400    0.8508    0.7769 O   0  0  0  0  0  0  0  0  0  0  0  0
   -1.3902    0.3672    0.7141 C   0  0  2  0  0  0  0  0  0  0  0  0
   -2.5176    1.3555    0.6412 C   0  0  1  0  0  0  0  0  0  0  0  0
   -2.2787    2.4023   -0.4062 C   0  0  0  0  0  0  0  0  0  0  0  0
   -1.1836    3.1965   -0.1786 O   0  0  0  0  0  0  0  0  0  0  0  0
   -3.6961    0.6785    0.2770 O   0  0  0  0  0  0  0  0  0  0  0  0
   -4.0306   -0.2746    1.2382 C   0  0  1  0  0  0  0  0  0  0  0  0
   -5.2980   -0.7391    0.9954 O   0  0  0  0  0  0  0  0  0  0  0  0
   -2.9819   -1.3618    1.2642 C   0  0  2  0  0  0  0  0  0  0  0  0
   -3.3602   -2.2596    2.2706 O   0  0  0  0  0  0  0  0  0  0  0  0
   -1.7047   -0.6840    1.7889 C   0  0  1  0  0  0  0  0  0  0  0  0
   -0.6418   -1.5435    1.8514 O   0  0  0  0  0  0  0  0  0  0  0  0
    1.7780   -0.3512    0.3960 O   0  0  0  0  0  0  0  0  0  0  0  0
  1  2  1  0
  3  1  1  1
  3  4  1  0
  4  5  1  1
  4  6  1  0
  6  7  1  1
  6  8  1  0
  8  9  1  6
  8 10  1  0
 10 11  1  1
 12 11  1  1
 12 13  1  0
 13 14  1  6
 14 15  1  0
 13 16  1  0
 16 17  1  0
 17 18  1  6
 17 19  1  0
 19 20  1  1
 19 21  1  0
 21 22  1  6
 10 23  1  0
 21 12  1  0
 23  3  1  0
M  END

