
     RDKit          3D

 34 37  0  0  0  0  0  0  0  0999 V2000
    9.1061   -2.3043   -0.8266 C   0  0  0  0  0  0  0  0  0  0  0  0
   10.5884   -1.5823    0.0008 S   0  0  0  0  0  0  0  0  0  0  0  0
    9.7365    0.4045    0.1501 S   0  0  0  0  0  0  0  0  0  0  0  0
    8.1430   -0.0603   -0.6573 C   0  0  1  0  0  0  0  0  0  0  0  0
    8.0032   -1.4769   -0.1624 C   0  0  0  0  0  0  0  0  0  0  0  0
    7.0228    0.7547   -0.1024 C   0  0  0  0  0  0  0  0  0  0  0  0
    5.7057    0.4089   -0.7364 C   0  0  0  0  0  0  0  0  0  0  0  0
    4.6258    1.2853   -0.1153 C   0  0  0  0  0  0  0  0  0  0  0  0
    3.3068    0.9478   -0.7416 C   0  0  0  0  0  0  0  0  0  0  0  0
    2.2109    1.7746   -0.1729 C   0  0  0  0  0  0  0  0  0  0  0  0
    2.4446    2.6283    0.7188 O   0  0  0  0  0  0  0  0  0  0  0  0
    0.8991    1.6359   -0.6020 O   0  0  0  0  0  0  0  0  0  0  0  0
   -0.3912    2.5706    0.0294 P   0  0  0  0  0  5  0  0  0  0  0  0
   -1.4979    1.6070    0.8534 O   0  0  0  0  0  0  0  0  0  0  0  0
   -1.4782    0.2842    0.3622 C   0  0  0  0  0  0  0  0  0  0  0  0
   -2.4634   -0.5734    1.0960 C   0  0  1  0  0  0  0  0  0  0  0  0
   -3.7465   -0.0567    0.9332 O   0  0  0  0  0  0  0  0  0  0  0  0
   -4.6074   -1.1582    0.9415 C   0  0  1  0  0  0  0  0  0  0  0  0
   -5.8931   -0.8007    0.4200 N   0  0  0  0  0  0  0  0  0  0  0  0
   -6.3258    0.4414    0.1461 C   0  0  0  0  0  0  0  0  0  0  0  0
   -7.6381    0.3867   -0.3493 C   0  0  0  0  0  0  0  0  0  0  0  0
   -7.9498   -0.9150   -0.3538 N   0  0  0  0  0  0  0  0  0  0  0  0
   -6.9026   -1.6222    0.1074 C   0  0  0  0  0  0  0  0  0  0  0  0
   -8.3042    1.5331   -0.7037 C   0  0  0  0  0  0  0  0  0  0  0  0
   -9.6186    1.4922   -1.2011 N   0  0  0  0  0  0  0  0  0  0  0  0
   -7.6758    2.7064   -0.5672 N   0  0  0  0  0  0  0  0  0  0  0  0
   -6.3952    2.7564   -0.0835 C   0  0  0  0  0  0  0  0  0  0  0  0
   -5.7306    1.6410    0.2677 N   0  0  0  0  0  0  0  0  0  0  0  0
   -3.8874   -2.1131    0.0247 C   0  0  2  0  0  0  0  0  0  0  0  0
   -4.2639   -3.4368    0.2173 O   0  0  0  0  0  0  0  0  0  0  0  0
   -2.4537   -1.9455    0.4844 C   0  0  2  0  0  0  0  0  0  0  0  0
   -2.2295   -2.8724    1.4871 O   0  0  0  0  0  0  0  0  0  0  0  0
    0.2323    3.5993    0.9637 O   0  0  0  0  0  0  0  0  0  0  0  0
   -1.1978    3.4039   -1.1753 O   0  0  0  0  0  1  0  0  0  0  0  0
  1  2  1  0
  2  3  1  0
  3  4  1  0
  4  5  1  0
  4  6  1  1
  6  7  1  0
  7  8  1  0
  8  9  1  0
  9 10  1  0
 10 11  2  0
 10 12  1  0
 12 13  1  0
 13 14  1  0
 14 15  1  0
 16 15  1  6
 16 17  1  0
 17 18  1  0
 18 19  1  6
 19 20  1  0
 20 21  2  0
 21 22  1  0
 22 23  2  0
 21 24  1  0
 24 25  1  0
 24 26  2  0
 26 27  1  0
 27 28  2  0
 18 29  1  0
 29 30  1  1
 29 31  1  0
 31 32  1  1
 13 33  2  0
 13 34  1  0
  5  1  1  0
 23 19  1  0
 28 20  1  0
 31 16  1  0
M  CHG  1  34  -1
M  END

