
     RDKit          3D

 10 10  0  0  0  0  0  0  0  0999 V2000
   -1.1664   -1.1227   -0.5127 C   0  0  0  0  0  0  0  0  0  0  0  0
   -1.3798    0.1007   -1.1224 O   0  0  0  0  0  0  0  0  0  0  0  0
   -1.0781    1.1778   -0.3083 C   0  0  0  0  0  0  0  0  0  0  0  0
   -2.0724    1.3668    0.6800 O   0  0  0  0  0  0  0  0  0  0  0  0
    0.2710    1.1384    0.3038 C   0  0  2  0  0  0  0  0  0  0  0  0
    1.0420    2.1997   -0.2265 O   0  0  0  0  0  0  0  0  0  0  0  0
    1.0483   -0.1117    0.1082 C   0  0  2  0  0  0  0  0  0  0  0  0
    2.0236    0.0622   -0.8921 O   0  0  0  0  0  0  0  0  0  0  0  0
    0.2538   -1.3439   -0.1357 C   0  0  1  0  0  0  0  0  0  0  0  0
    0.2687   -2.2199    0.9746 O   0  0  0  0  0  0  0  0  0  0  0  0
  1  2  1  0
  2  3  1  0
  3  4  1  0
  3  5  1  0
  5  6  1  6
  5  7  1  0
  7  8  1  6
  7  9  1  0
  9 10  1  1
  9  1  1  0
M  END

