
     RDKit          3D

  9  8  0  0  0  0  0  0  0  0999 V2000
    1.9169    0.1673    0.1754 C   0  0  0  0  0  0  0  0  0  0  0  0
    2.0210   -0.7565    1.0097 O   0  0  0  0  0  0  0  0  0  0  0  0
    3.0588    0.7809   -0.2930 O   0  0  0  0  0  1  0  0  0  0  0  0
    0.5994    0.5926   -0.2984 C   0  0  0  0  0  0  0  0  0  0  0  0
   -0.5245   -0.2206    0.3500 C   0  0  2  0  0  0  0  0  0  0  0  0
   -0.3885   -1.5581    0.0602 O   0  0  0  0  0  0  0  0  0  0  0  0
   -1.8378    0.2392   -0.1700 C   0  0  0  0  0  0  0  0  0  0  0  0
   -2.4232    1.4299    0.2199 O   0  0  0  0  0  1  0  0  0  0  0  0
   -2.4822   -0.4660   -1.0124 O   0  0  0  0  0  0  0  0  0  0  0  0
  1  2  2  0
  1  3  1  0
  1  4  1  0
  4  5  1  0
  5  6  1  6
  5  7  1  0
  7  8  1  0
  7  9  2  0
M  CHG  2   3  -1   8  -1
M  END

