
     RDKit          3D

 54 56  0  0  0  0  0  0  0  0999 V2000
    1.0248   -2.6520   -0.2803 C   0  0  0  0  0  0  0  0  0  0  0  0
    0.4996   -1.6282   -1.2976 C   0  0  0  0  0  0  0  0  0  0  0  0
   -0.7050   -2.2172   -1.9879 C   0  0  0  0  0  0  0  0  0  0  0  0
    1.5979   -1.3635   -2.2754 C   0  0  1  0  0  0  0  0  0  0  0  0
    1.3024   -0.4827   -3.2839 O   0  0  0  0  0  0  0  0  0  0  0  0
    2.8354   -0.8374   -1.5896 C   0  0  0  0  0  0  0  0  0  0  0  0
    3.2012   -1.4249   -0.5526 O   0  0  0  0  0  0  0  0  0  0  0  0
    3.5162    0.2612   -2.1282 N   0  0  0  0  0  0  0  0  0  0  0  0
    4.6970    0.7993   -1.5182 C   0  0  0  0  0  0  0  0  0  0  0  0
    5.7630   -0.2469   -1.4380 C   0  0  0  0  0  0  0  0  0  0  0  0
    7.0248    0.2795   -0.8510 C   0  0  0  0  0  0  0  0  0  0  0  0
    7.1071    1.5431   -0.6609 O   0  0  0  0  0  0  0  0  0  0  0  0
    8.0906   -0.5754   -0.5160 N   0  0  0  0  0  0  0  0  0  0  0  0
    9.3028   -0.0214    0.0318 C   0  0  0  0  0  0  0  0  0  0  0  0
   10.3168   -1.0853    0.3913 C   0  0  0  0  0  0  0  0  0  0  0  0
   11.7869   -0.2418    1.0110 S   0  0  0  0  0  0  0  0  0  0  0  0
   11.3466    0.6459    2.5131 C   0  0  0  0  0  0  0  0  0  0  0  0
   10.2167    0.6403    2.9513 O   0  0  0  0  0  0  0  0  0  0  0  0
   12.4329    1.4062    3.2162 C   0  0  0  0  0  0  0  0  0  0  0  0
   11.9366    2.2103    4.3398 C   0  0  0  0  0  0  0  0  0  0  0  0
   11.7238    1.7444    5.4747 O   0  0  0  0  0  0  0  0  0  0  0  0
   11.6987    3.5520    4.1054 O   0  0  0  0  0  1  0  0  0  0  0  0
    0.0874   -0.4300   -0.4854 C   0  0  0  0  0  0  0  0  0  0  0  0
   -0.4158    0.5752   -1.2862 O   0  0  0  0  0  0  0  0  0  0  0  0
   -0.8433    1.8803   -0.2843 P   0  0  0  0  0  5  0  0  0  0  0  0
   -1.9154    2.7224   -0.9148 O   0  0  0  0  0  0  0  0  0  0  0  0
   -1.3721    1.2798    1.1978 O   0  0  0  0  0  0  0  0  0  0  0  0
   -2.8454    1.9690    1.6222 P   0  0  0  0  0  5  0  0  0  0  0  0
   -3.0131    3.2570    0.8546 O   0  0  0  0  0  0  0  0  0  0  0  0
   -4.0608    0.8910    1.2061 O   0  0  0  0  0  0  0  0  0  0  0  0
   -3.7856   -0.3846    1.6762 C   0  0  0  0  0  0  0  0  0  0  0  0
   -4.8644   -1.3817    1.3090 C   0  0  2  0  0  0  0  0  0  0  0  0
   -5.0240   -1.4158   -0.1784 C   0  0  1  0  0  0  0  0  0  0  0  0
   -5.5788   -2.6043   -0.6448 O   0  0  0  0  0  0  0  0  0  0  0  0
   -4.7880   -3.3000   -1.9264 P   0  0  0  0  0  5  0  0  0  0  0  0
   -3.9749   -4.7321   -1.4931 O   0  0  0  0  0  1  0  0  0  0  0  0
   -3.9037   -2.3271   -2.6442 O   0  0  0  0  0  0  0  0  0  0  0  0
   -5.9732   -3.7744   -3.0731 O   0  0  0  0  0  1  0  0  0  0  0  0
   -6.1364   -0.3664   -0.3593 C   0  0  1  0  0  0  0  0  0  0  0  0
   -6.8282   -0.7004   -1.5030 O   0  0  0  0  0  0  0  0  0  0  0  0
   -6.9679   -0.7424    0.8606 C   0  0  1  0  0  0  0  0  0  0  0  0
   -6.0518   -0.9598    1.8807 O   0  0  0  0  0  0  0  0  0  0  0  0
   -7.9847    0.1997    1.1778 N   0  0  0  0  0  0  0  0  0  0  0  0
   -8.4729    1.1391    0.3562 C   0  0  0  0  0  0  0  0  0  0  0  0
   -8.2211    1.5043   -0.9201 N   0  0  0  0  0  0  0  0  0  0  0  0
   -8.8859    2.5123   -1.5109 C   0  0  0  0  0  0  0  0  0  0  0  0
   -9.8338    3.2095   -0.8652 N   0  0  0  0  0  0  0  0  0  0  0  0
  -10.1396    2.9000    0.4168 C   0  0  0  0  0  0  0  0  0  0  0  0
   -9.4553    1.8649    1.0172 C   0  0  0  0  0  0  0  0  0  0  0  0
   -9.5135    1.3115    2.2467 N   0  0  0  0  0  0  0  0  0  0  0  0
   -8.6191    0.2938    2.3535 C   0  0  0  0  0  0  0  0  0  0  0  0
  -11.1336    3.6101    1.1357 N   0  0  0  0  0  0  0  0  0  0  0  0
   -2.8806    2.3694    3.2714 O   0  0  0  0  0  1  0  0  0  0  0  0
    0.5149    2.8530   -0.0202 O   0  0  0  0  0  1  0  0  0  0  0  0
  1  2  1  0
  2  3  1  0
  2  4  1  0
  4  5  1  6
  4  6  1  0
  6  7  2  0
  6  8  1  0
  8  9  1  0
  9 10  1  0
 10 11  1  0
 11 12  2  0
 11 13  1  0
 13 14  1  0
 14 15  1  0
 15 16  1  0
 16 17  1  0
 17 18  2  0
 17 19  1  0
 19 20  1  0
 20 21  2  0
 20 22  1  0
  2 23  1  0
 23 24  1  0
 24 25  1  0
 25 26  2  0
 25 27  1  0
 27 28  1  0
 28 29  2  0
 28 30  1  0
 30 31  1  0
 32 31  1  6
 32 33  1  0
 33 34  1  1
 34 35  1  0
 35 36  1  0
 35 37  2  0
 35 38  1  0
 33 39  1  0
 39 40  1  6
 39 41  1  0
 41 42  1  0
 41 43  1  1
 43 44  1  0
 44 45  2  0
 45 46  1  0
 46 47  2  0
 47 48  1  0
 48 49  2  0
 49 50  1  0
 50 51  2  0
 48 52  1  0
 28 53  1  0
 25 54  1  0
 42 32  1  0
 51 43  1  0
 49 44  1  0
M  CHG  5  22  -1  36  -1  38  -1  53  -1  54  -1
M  END

