
     RDKit          3D

 34 36  0  0  0  0  0  0  0  0999 V2000
    5.9597   -1.4263    0.6763 C   0  0  0  0  0  0  0  0  0  0  0  0
    5.1586   -0.4189   -0.0788 C   0  0  1  0  0  0  0  0  0  0  0  0
    3.9868   -0.0530    0.5595 O   0  0  0  0  0  0  0  0  0  0  0  0
    3.1036    0.6360   -0.2494 C   0  0  1  0  0  0  0  0  0  0  0  0
    3.7739    1.4240   -1.3382 C   0  0  1  0  0  0  0  0  0  0  0  0
    5.1406    1.9252   -0.9486 C   0  0  2  0  0  0  0  0  0  0  0  0
    5.9819    0.7734   -0.5275 C   0  0  2  0  0  0  0  0  0  0  0  0
    6.7467    0.3431   -1.6102 O   0  0  0  0  0  0  0  0  0  0  0  0
    5.0714    2.9319    0.0158 O   0  0  0  0  0  0  0  0  0  0  0  0
    3.8945    0.6767   -2.4946 O   0  0  0  0  0  0  0  0  0  0  0  0
    2.3070   -0.3336   -0.8687 O   0  0  0  0  0  0  0  0  0  0  0  0
    0.9690   -0.2034   -0.5466 C   0  0  2  0  0  0  0  0  0  0  0  0
    0.4514   -1.4859    0.0618 C   0  0  2  0  0  0  0  0  0  0  0  0
   -0.8277   -1.2868    0.5267 O   0  0  0  0  0  0  0  0  0  0  0  0
   -1.6108   -0.4977   -0.3081 C   0  0  1  0  0  0  0  0  0  0  0  0
   -1.1958   -0.5903   -1.7488 C   0  0  1  0  0  0  0  0  0  0  0  0
    0.2160   -0.0049   -1.8542 C   0  0  1  0  0  0  0  0  0  0  0  0
    0.1444    1.3445   -2.1955 O   0  0  0  0  0  0  0  0  0  0  0  0
   -1.2682   -1.8670   -2.2584 O   0  0  0  0  0  0  0  0  0  0  0  0
   -2.9194   -0.8278   -0.0736 O   0  0  0  0  0  0  0  0  0  0  0  0
   -3.6853    0.1808    0.4809 C   0  0  2  0  0  0  0  0  0  0  0  0
   -4.2757   -0.1627    1.8022 C   0  0  2  0  0  0  0  0  0  0  0  0
   -5.4552   -0.8502    1.7762 O   0  0  0  0  0  0  0  0  0  0  0  0
   -6.3706   -0.4507    0.8507 C   0  0  0  0  0  0  0  0  0  0  0  0
   -5.8227   -0.4093   -0.5608 C   0  0  1  0  0  0  0  0  0  0  0  0
   -4.6978    0.5919   -0.5698 C   0  0  1  0  0  0  0  0  0  0  0  0
   -5.1894    1.8748   -0.3657 O   0  0  0  0  0  0  0  0  0  0  0  0
   -5.3872   -1.6695   -0.8978 O   0  0  0  0  0  0  0  0  0  0  0  0
   -7.4047   -1.4160    0.8342 O   0  0  0  0  0  0  0  0  0  0  0  0
   -4.3271    1.0827    2.6647 C   0  0  0  0  0  0  0  0  0  0  0  0
   -5.2649    1.9971    2.2624 O   0  0  0  0  0  0  0  0  0  0  0  0
    1.3054   -1.9407    1.2352 C   0  0  0  0  0  0  0  0  0  0  0  0
    1.3416   -1.0146    2.2525 O   0  0  0  0  0  0  0  0  0  0  0  0
    6.3601   -1.0179    1.9233 O   0  0  0  0  0  0  0  0  0  0  0  0
  2  1  1  1
  2  3  1  0
  3  4  1  0
  4  5  1  0
  5  6  1  0
  6  7  1  0
  7  8  1  6
  6  9  1  1
  5 10  1  6
  4 11  1  6
 12 11  1  6
 12 13  1  0
 13 14  1  0
 14 15  1  0
 15 16  1  0
 16 17  1  0
 17 18  1  1
 16 19  1  1
 15 20  1  6
 21 20  1  6
 21 22  1  0
 22 23  1  0
 23 24  1  0
 24 25  1  0
 25 26  1  0
 26 27  1  1
 25 28  1  1
 24 29  1  0
 22 30  1  6
 30 31  1  0
 13 32  1  1
 32 33  1  0
  1 34  1  0
  7  2  1  0
 17 12  1  0
 26 21  1  0
M  END

