
     RDKit          3D

 27 28  0  0  0  0  0  0  0  0999 V2000
   -3.7082    1.1558   -0.4569 C   0  0  0  0  0  0  0  0  0  0  0  0
   -3.2723    2.4379   -0.8511 O   0  0  0  0  0  0  0  0  0  0  0  0
   -4.5538    3.5042   -0.7406 P   0  0  0  0  0  5  0  0  0  0  0  0
   -5.6306    3.2004   -2.0112 O   0  0  0  0  0  1  0  0  0  0  0  0
   -5.3034    3.3416    0.5605 O   0  0  0  0  0  0  0  0  0  0  0  0
   -3.9705    5.0792   -0.9255 O   0  0  0  0  0  1  0  0  0  0  0  0
   -2.5226    0.1825   -0.5619 C   0  0  1  0  0  0  0  0  0  0  0  0
   -1.5542    0.6195    0.2482 O   0  0  0  0  0  0  0  0  0  0  0  0
   -0.6747   -0.2730    0.7957 C   0  0  2  0  0  0  0  0  0  0  0  0
    0.2878   -0.5503   -0.1544 O   0  0  0  0  0  0  0  0  0  0  0  0
    1.5789   -0.1711    0.2289 C   0  0  1  0  0  0  0  0  0  0  0  0
    2.3846   -1.4057    0.3919 C   0  0  2  0  0  0  0  0  0  0  0  0
    2.5160   -1.7768    1.7530 O   0  0  0  0  0  0  0  0  0  0  0  0
    3.7774   -1.3415   -0.1580 C   0  0  1  0  0  0  0  0  0  0  0  0
    3.8757   -2.0300   -1.3672 O   0  0  0  0  0  0  0  0  0  0  0  0
    4.2250    0.0813   -0.4258 C   0  0  1  0  0  0  0  0  0  0  0  0
    5.4601   -0.0172   -1.0984 O   0  0  0  0  0  0  0  0  0  0  0  0
    3.3098    0.6182   -1.2936 O   0  0  0  0  0  0  0  0  0  0  0  0
    2.1458    0.9000   -0.6333 C   0  0  2  0  0  0  0  0  0  0  0  0
    2.3695    2.2068    0.1422 C   0  0  0  0  0  0  0  0  0  0  0  0
    2.6866    3.2176   -0.7604 O   0  0  0  0  0  0  0  0  0  0  0  0
   -1.3743   -1.5315    1.3055 C   0  0  2  0  0  0  0  0  0  0  0  0
   -0.5153   -2.3902    1.9205 O   0  0  0  0  0  0  0  0  0  0  0  0
   -1.9517   -2.1867    0.0667 C   0  0  1  0  0  0  0  0  0  0  0  0
   -2.4885   -3.3915    0.4432 O   0  0  0  0  0  0  0  0  0  0  0  0
   -2.9820   -1.2175   -0.4471 C   0  0  2  0  0  0  0  0  0  0  0  0
   -3.5631   -1.6972   -1.6445 O   0  0  0  0  0  0  0  0  0  0  0  0
  1  2  1  0
  2  3  1  0
  3  4  1  0
  3  5  2  0
  3  6  1  0
  7  1  1  1
  7  8  1  0
  8  9  1  0
  9 10  1  6
 11 10  1  6
 11 12  1  0
 12 13  1  1
 12 14  1  0
 14 15  1  6
 14 16  1  0
 16 17  1  6
 16 18  1  0
 18 19  1  0
 19 20  1  1
 20 21  1  0
  9 22  1  0
 22 23  1  6
 22 24  1  0
 24 25  1  1
 24 26  1  0
 26 27  1  6
 19 11  1  0
 26  7  1  0
M  CHG  2   4  -1   6  -1
M  END

