
     RDKit          3D

 67 72  0  0  0  0  0  0  0  0999 V2000
   12.7981    1.0390   -1.4052 C   0  0  0  0  0  0  0  0  0  0  0  0
   12.1751    2.3436   -0.9537 C   0  0  1  0  0  0  0  0  0  0  0  0
   10.8037    2.2178   -0.7867 O   0  0  0  0  0  0  0  0  0  0  0  0
   10.4461    1.3366    0.2304 C   0  0  2  0  0  0  0  0  0  0  0  0
    9.1066    1.4873    0.5103 O   0  0  0  0  0  0  0  0  0  0  0  0
    8.3640    0.3569    0.0884 C   0  0  2  0  0  0  0  0  0  0  0  0
    7.3781    0.8411   -0.9003 C   0  0  2  0  0  0  0  0  0  0  0  0
    6.0697    0.8296   -0.5379 O   0  0  0  0  0  0  0  0  0  0  0  0
    5.5915   -0.3523   -0.0092 C   0  0  2  0  0  0  0  0  0  0  0  0
    4.4201   -0.2140    0.7199 O   0  0  0  0  0  0  0  0  0  0  0  0
    3.2903   -0.7317    0.1486 C   0  0  2  0  0  0  0  0  0  0  0  0
    2.2622    0.3648   -0.0035 C   0  0  2  0  0  0  0  0  0  0  0  0
    1.1153    0.1176    0.7415 O   0  0  0  0  0  0  0  0  0  0  0  0
    0.4314   -1.0348    0.3682 C   0  0  2  0  0  0  0  0  0  0  0  0
   -0.5166   -1.3204    1.3417 O   0  0  0  0  0  0  0  0  0  0  0  0
   -1.7945   -1.2364    0.8391 C   0  0  2  0  0  0  0  0  0  0  0  0
   -2.7227   -0.3930    1.6419 C   0  0  2  0  0  0  0  0  0  0  0  0
   -3.7892   -0.0387    0.8480 O   0  0  0  0  0  0  0  0  0  0  0  0
   -4.2256   -1.0838    0.0019 C   0  0  1  0  0  0  0  0  0  0  0  0
   -3.9562   -2.4438    0.5372 C   0  0  1  0  0  0  0  0  0  0  0  0
   -2.4765   -2.6197    0.7517 C   0  0  1  0  0  0  0  0  0  0  0  0
   -1.9716   -3.1963   -0.4108 O   0  0  0  0  0  0  0  0  0  0  0  0
   -4.7105   -2.7508    1.6678 O   0  0  0  0  0  0  0  0  0  0  0  0
   -5.5807   -0.8314   -0.2010 O   0  0  0  0  0  0  0  0  0  0  0  0
   -5.8714   -0.3703   -1.4836 C   0  0  2  0  0  0  0  0  0  0  0  0
   -6.6930    0.8613   -1.3590 C   0  0  2  0  0  0  0  0  0  0  0  0
   -7.9735    0.7798   -1.8649 O   0  0  0  0  0  0  0  0  0  0  0  0
   -8.7379   -0.2669   -1.4209 C   0  0  1  0  0  0  0  0  0  0  0  0
   -8.0530   -1.6049   -1.5709 C   0  0  1  0  0  0  0  0  0  0  0  0
   -6.6753   -1.4615   -2.1778 C   0  0  1  0  0  0  0  0  0  0  0  0
   -6.8046   -1.1646   -3.5438 O   0  0  0  0  0  0  0  0  0  0  0  0
   -8.0092   -2.2653   -0.3448 O   0  0  0  0  0  0  0  0  0  0  0  0
   -9.2148   -0.1783   -0.1362 O   0  0  0  0  0  0  0  0  0  0  0  0
  -10.5827   -0.1568   -0.0089 C   0  0  2  0  0  0  0  0  0  0  0  0
  -11.1362    1.1069    0.5661 C   0  0  2  0  0  0  0  0  0  0  0  0
  -12.5453    0.9660    0.5033 O   0  0  0  0  0  0  0  0  0  0  0  0
  -12.9713    0.1881    1.5712 C   0  0  0  0  0  0  0  0  0  0  0  0
  -12.1194   -1.0221    1.8055 C   0  0  1  0  0  0  0  0  0  0  0  0
  -11.1480   -1.3240    0.7235 C   0  0  1  0  0  0  0  0  0  0  0  0
  -11.7021   -2.2512   -0.1814 O   0  0  0  0  0  0  0  0  0  0  0  0
  -11.4928   -0.9788    3.0545 O   0  0  0  0  0  0  0  0  0  0  0  0
  -14.3194   -0.1047    1.3846 O   0  0  0  0  0  0  0  0  0  0  0  0
  -10.7534    2.3431   -0.1995 C   0  0  0  0  0  0  0  0  0  0  0  0
  -11.4007    3.4323    0.4158 O   0  0  0  0  0  0  0  0  0  0  0  0
   -6.0236    2.0460   -2.0602 C   0  0  0  0  0  0  0  0  0  0  0  0
   -4.7332    2.2277   -1.6287 O   0  0  0  0  0  0  0  0  0  0  0  0
   -2.0291    0.8644    2.1119 C   0  0  0  0  0  0  0  0  0  0  0  0
   -0.9496    0.5608    2.9485 O   0  0  0  0  0  0  0  0  0  0  0  0
    1.3575   -2.2127    0.2148 C   0  0  1  0  0  0  0  0  0  0  0  0
    2.6481   -1.8368    0.9750 C   0  0  1  0  0  0  0  0  0  0  0  0
    3.4253   -2.9621    0.9692 O   0  0  0  0  0  0  0  0  0  0  0  0
    0.7869   -3.3078    0.8802 O   0  0  0  0  0  0  0  0  0  0  0  0
    2.0238    0.7958   -1.4102 C   0  0  0  0  0  0  0  0  0  0  0  0
    1.3366   -0.0727   -2.2124 O   0  0  0  0  0  0  0  0  0  0  0  0
    6.5817   -1.1065    0.8021 C   0  0  1  0  0  0  0  0  0  0  0  0
    7.7256   -0.2428    1.2900 C   0  0  1  0  0  0  0  0  0  0  0  0
    8.6279   -1.0855    1.9278 O   0  0  0  0  0  0  0  0  0  0  0  0
    5.9876   -1.6547    1.9624 O   0  0  0  0  0  0  0  0  0  0  0  0
    7.5122   -0.0324   -2.1540 C   0  0  0  0  0  0  0  0  0  0  0  0
    8.8692   -0.0138   -2.5066 O   0  0  0  0  0  0  0  0  0  0  0  0
   11.2643    1.4189    1.4647 C   0  0  1  0  0  0  0  0  0  0  0  0
   11.9606    2.7665    1.4941 C   0  0  2  0  0  0  0  0  0  0  0  0
   12.8401    2.9233    0.2714 C   0  0  2  0  0  0  0  0  0  0  0  0
   13.1972    4.2459    0.0445 O   0  0  0  0  0  0  0  0  0  0  0  0
   12.5877    3.0559    2.6768 O   0  0  0  0  0  0  0  0  0  0  0  0
   10.3918    1.3602    2.5753 O   0  0  0  0  0  0  0  0  0  0  0  0
   14.1808    1.2239   -1.5547 O   0  0  0  0  0  0  0  0  0  0  0  0
  2  1  1  1
  2  3  1  0
  3  4  1  0
  4  5  1  1
  6  5  1  1
  6  7  1  0
  7  8  1  0
  8  9  1  0
  9 10  1  1
 11 10  1  1
 11 12  1  0
 12 13  1  0
 13 14  1  0
 14 15  1  1
 16 15  1  1
 16 17  1  0
 17 18  1  0
 18 19  1  0
 19 20  1  0
 20 21  1  0
 21 22  1  6
 20 23  1  1
 19 24  1  1
 25 24  1  1
 25 26  1  0
 26 27  1  0
 27 28  1  0
 28 29  1  0
 29 30  1  0
 30 31  1  6
 29 32  1  1
 28 33  1  1
 34 33  1  1
 34 35  1  0
 35 36  1  0
 36 37  1  0
 37 38  1  0
 38 39  1  0
 39 40  1  6
 38 41  1  1
 37 42  1  0
 35 43  1  6
 43 44  1  0
 26 45  1  6
 45 46  1  0
 17 47  1  6
 47 48  1  0
 14 49  1  0
 49 50  1  0
 50 51  1  6
 49 52  1  1
 12 53  1  6
 53 54  1  0
  9 55  1  0
 55 56  1  0
 56 57  1  6
 55 58  1  1
  7 59  1  6
 59 60  1  0
  4 61  1  0
 61 62  1  0
 62 63  1  0
 63 64  1  6
 62 65  1  1
 61 66  1  1
  1 67  1  0
 21 16  1  0
 30 25  1  0
 39 34  1  0
 50 11  1  0
 56  6  1  0
 63  2  1  0
M  END

