
     RDKit          3D

  9  9  0  0  0  0  0  0  0  0999 V2000
   -1.7534    0.7398    0.1572 C   0  0  0  0  0  0  0  0  0  0  0  0
   -0.7803   -0.4376    0.3096 C   0  0  1  0  0  0  0  0  0  0  0  0
   -1.3864   -1.4022    1.1053 O   0  0  0  0  0  0  0  0  0  0  0  0
   -0.4769   -0.9132   -0.9395 O   0  0  0  0  0  0  0  0  0  0  0  0
    0.8600   -0.7461   -1.1800 C   0  0  0  0  0  0  0  0  0  0  0  0
    1.3449    0.3483   -0.2446 C   0  0  2  0  0  0  0  0  0  0  0  0
    2.6893    0.2140    0.0604 O   0  0  0  0  0  0  0  0  0  0  0  0
    0.4530    0.1089    0.9075 C   0  0  0  0  0  0  0  0  0  0  0  0
    0.6791    0.3124    2.0685 O   0  0  0  0  0  0  0  0  0  0  0  0
  2  1  1  6
  2  3  1  0
  2  4  1  0
  4  5  1  0
  5  6  1  0
  6  7  1  1
  6  8  1  0
  8  9  2  0
  8  2  1  0
M  END

