
     RDKit          3D

 23 24  0  0  0  0  0  0  0  0999 V2000
   -2.1846    2.2604    0.1043 C   0  0  0  0  0  0  0  0  0  0  0  0
   -2.2214    0.7609   -0.0539 C   0  0  1  0  0  0  0  0  0  0  0  0
   -1.4560    0.0901    0.8708 O   0  0  0  0  0  0  0  0  0  0  0  0
   -1.1729   -1.1840    0.3647 C   0  0  1  0  0  0  0  0  0  0  0  0
   -2.4334   -1.9775    0.1689 C   0  0  1  0  0  0  0  0  0  0  0  0
   -3.6171   -1.1925   -0.2675 C   0  0  2  0  0  0  0  0  0  0  0  0
   -3.6440    0.2273    0.1709 C   0  0  1  0  0  0  0  0  0  0  0  0
   -3.8496    0.3153    1.5668 O   0  0  0  0  0  0  0  0  0  0  0  0
   -4.8083   -1.8010    0.1863 O   0  0  0  0  0  0  0  0  0  0  0  0
   -2.2526   -2.9859   -0.8067 O   0  0  0  0  0  0  0  0  0  0  0  0
   -0.4088   -0.9987   -0.7211 O   0  0  0  0  0  0  0  0  0  0  0  0
    0.8686   -1.3675   -0.7727 C   0  0  0  0  0  0  0  0  0  0  0  0
    1.8158   -0.7421    0.2267 C   0  0  1  0  0  0  0  0  0  0  0  0
    3.0634   -1.2524    0.0179 O   0  0  0  0  0  0  0  0  0  0  0  0
    3.8934   -0.6126   -0.8416 C   0  0  0  0  0  0  0  0  0  0  0  0
    4.1541    0.7759   -0.3021 C   0  0  1  0  0  0  0  0  0  0  0  0
    2.8399    1.5169   -0.2902 C   0  0  2  0  0  0  0  0  0  0  0  0
    1.6999    0.7443    0.2540 C   0  0  2  0  0  0  0  0  0  0  0  0
    1.3439    1.2429    1.5312 O   0  0  0  0  0  0  0  0  0  0  0  0
    2.5569    2.0368   -1.5763 O   0  0  0  0  0  0  0  0  0  0  0  0
    4.6016    0.6416    1.0030 O   0  0  0  0  0  0  0  0  0  0  0  0
    3.5307   -0.6166   -2.1633 O   0  0  0  0  0  0  0  0  0  0  0  0
   -2.6431    2.6898    1.3364 O   0  0  0  0  0  0  0  0  0  0  0  0
  2  1  1  1
  2  3  1  0
  3  4  1  0
  4  5  1  0
  5  6  1  0
  6  7  1  0
  7  8  1  1
  6  9  1  1
  5 10  1  6
  4 11  1  6
 11 12  1  0
 13 12  1  6
 13 14  1  0
 14 15  1  0
 15 16  1  0
 16 17  1  0
 17 18  1  0
 18 19  1  1
 17 20  1  6
 16 21  1  1
 15 22  1  0
  1 23  1  0
  7  2  1  0
 18 13  1  0
M  END

