
     RDKit          3D

  7  6  0  0  0  0  0  0  0  0999 V2000
   -0.7384   -0.1887    0.6369 C   0  0  0  0  0  0  0  0  0  0  0  0
    0.6122    0.4631    0.5592 C   0  0  0  0  0  0  0  0  0  0  0  0
    1.4007    0.3483   -0.6537 C   0  0  0  0  0  0  0  0  0  0  0  0
    1.0058   -0.2801   -1.6628 O   0  0  0  0  0  0  0  0  0  0  0  0
    2.6402    0.9546   -0.7059 O   0  0  0  0  0  1  0  0  0  0  0  0
    1.0346    1.0997    1.5550 O   0  0  0  0  0  0  0  0  0  0  0  0
   -1.1398   -1.0420   -0.8952 S   0  0  0  0  0  0  0  0  0  0  0  0
  1  2  1  0
  2  3  1  0
  3  4  2  0
  3  5  1  0
  2  6  2  0
  1  7  1  0
M  CHG  1   5  -1
M  END

