
     RDKit          3D

 10  9  0  0  0  0  0  0  0  0999 V2000
    3.1299   -0.3087    0.8105 C   0  0  0  0  0  0  0  0  0  0  0  0
    2.1783    1.0294    0.1584 S   0  0  0  0  0  4  0  0  0  0  0  0
    2.8706    1.7401   -0.9679 O   0  0  0  0  0  0  0  0  0  0  0  0
    0.4952    0.6080   -0.2350 C   0  0  0  0  0  0  0  0  0  0  0  0
   -0.3064    0.1255    0.9081 C   0  0  0  0  0  0  0  0  0  0  0  0
   -1.7022   -0.2062    0.4652 C   0  0  2  0  0  0  0  0  0  0  0  0
   -1.6183   -1.2420   -0.5839 N   0  0  0  0  0  4  0  0  0  0  0  0
   -2.5058    0.9169   -0.0197 C   0  0  0  0  0  0  0  0  0  0  0  0
   -3.7545    0.6904   -0.1754 O   0  0  0  0  0  0  0  0  0  0  0  0
   -2.0819    2.1762   -0.3240 O   0  0  0  0  0  1  0  0  0  0  0  0
  1  2  1  0
  2  3  2  0
  2  4  1  0
  4  5  1  0
  5  6  1  0
  6  7  1  6
  6  8  1  0
  8  9  2  0
  8 10  1  0
M  CHG  2   7   1  10  -1
M  END

