
     RDKit          3D

 10  9  0  0  0  0  0  0  0  0999 V2000
    3.2498    0.2174    0.6437 C   0  0  0  0  0  0  0  0  0  0  0  0
    2.1588   -1.1705    0.8154 S   0  0  0  0  0  4  0  0  0  0  0  0
    2.8237   -2.4207    0.2399 O   0  0  0  0  0  0  0  0  0  0  0  0
    0.6031   -0.9536   -0.0452 C   0  0  0  0  0  0  0  0  0  0  0  0
   -0.1741    0.2146    0.4228 C   0  0  0  0  0  0  0  0  0  0  0  0
   -1.4624    0.3270   -0.3562 C   0  0  2  0  0  0  0  0  0  0  0  0
   -2.1900    1.5189    0.1174 N   0  0  0  0  0  4  0  0  0  0  0  0
   -2.3452   -0.8581   -0.2237 C   0  0  0  0  0  0  0  0  0  0  0  0
   -3.4106   -0.9623   -1.1046 O   0  0  0  0  0  1  0  0  0  0  0  0
   -2.1276   -1.7198    0.6493 O   0  0  0  0  0  0  0  0  0  0  0  0
  1  2  1  0
  2  3  2  0
  2  4  1  0
  4  5  1  0
  5  6  1  0
  6  7  1  1
  6  8  1  0
  8  9  1  0
  8 10  2  0
M  CHG  2   7   1   9  -1
M  END

