
     RDKit          3D

 16 16  0  0  0  0  0  0  0  0999 V2000
   -1.9290   -0.5377   -0.3304 C   0  0  2  0  0  0  0  0  0  0  0  0
   -3.2761   -0.3186   -0.1953 O   0  0  0  0  0  0  0  0  0  0  0  0
   -1.2711   -0.6751    1.0061 C   0  0  2  0  0  0  0  0  0  0  0  0
   -1.6875    0.4243    1.7882 O   0  0  0  0  0  0  0  0  0  0  0  0
    0.1936   -0.8440    0.9768 C   0  0  1  0  0  0  0  0  0  0  0  0
    0.4844   -2.2283    0.9873 O   0  0  0  0  0  0  0  0  0  0  0  0
    0.9354   -0.1607   -0.1021 C   0  0  2  0  0  0  0  0  0  0  0  0
    1.5187    1.0422    0.3018 O   0  0  0  0  0  0  0  0  0  0  0  0
    3.2032    1.0081    0.1767 P   0  0  0  0  0  5  0  0  0  0  0  0
    3.7705    2.4632   -0.4390 O   0  0  0  0  0  1  0  0  0  0  0  0
    3.7399    0.7310    1.5757 O   0  0  0  0  0  0  0  0  0  0  0  0
    3.7010   -0.3037   -0.7977 O   0  0  0  0  0  1  0  0  0  0  0  0
    0.1546    0.1121   -1.3498 C   0  0  2  0  0  0  0  0  0  0  0  0
    0.7979    1.1279   -2.0824 O   0  0  0  0  0  0  0  0  0  0  0  0
   -1.2226    0.6394   -1.0175 C   0  0  2  0  0  0  0  0  0  0  0  0
   -1.0374    1.6164   -0.0178 O   0  0  0  0  0  0  0  0  0  0  0  0
  1  2  1  1
  1  3  1  0
  3  4  1  1
  3  5  1  0
  5  6  1  6
  5  7  1  0
  7  8  1  1
  8  9  1  0
  9 10  1  0
  9 11  2  0
  9 12  1  0
  7 13  1  0
 13 14  1  6
 13 15  1  0
 15 16  1  1
 15  1  1  0
M  CHG  2  10  -1  12  -1
M  END

