
     RDKit          3D

 33 36  0  0  0  0  0  0  0  0999 V2000
    3.9221    2.5444    0.5872 C   0  0  0  0  0  0  0  0  0  0  0  0
    4.2705    1.6992   -0.5362 N   0  0  0  0  0  0  0  0  0  0  0  0
    4.7679    2.3854   -1.7156 C   0  0  0  0  0  0  0  0  0  0  0  0
    4.1406    0.2889   -0.5042 C   0  0  0  0  0  0  0  0  0  0  0  0
    5.2693   -0.4937   -0.6223 C   0  0  0  0  0  0  0  0  0  0  0  0
    5.2327   -1.8573   -0.5994 C   0  0  0  0  0  0  0  0  0  0  0  0
    4.0126   -2.5456   -0.4517 C   0  0  0  0  0  0  0  0  0  0  0  0
    4.0280   -3.9093   -0.4344 O   0  0  0  0  0  0  0  0  0  0  0  0
    2.8685   -1.7784   -0.3327 C   0  0  0  0  0  0  0  0  0  0  0  0
    2.9374   -0.3877   -0.3576 C   0  0  0  0  0  0  0  0  0  0  0  0
    1.7574    0.4838   -0.1777 C   0  0  0  0  0  0  0  0  0  0  0  0
    0.4326   -0.1776   -0.2339 C   0  0  1  0  0  0  0  0  0  0  0  0
    0.4839   -1.6525   -0.1953 C   0  0  0  0  0  0  0  0  0  0  0  0
   -0.8442   -2.2969   -0.0772 C   0  0  0  0  0  0  0  0  0  0  0  0
   -1.0312   -3.4239   -0.5891 O   0  0  0  0  0  0  0  0  0  0  0  0
   -1.9356   -1.6272    0.6332 C   0  0  2  0  0  0  0  0  0  0  0  0
   -2.0346   -2.3138    1.8814 O   0  0  0  0  0  0  0  0  0  0  0  0
   -3.1872   -2.0320   -0.0813 C   0  0  0  0  0  0  0  0  0  0  0  0
   -3.2588   -3.1517   -0.6174 O   0  0  0  0  0  0  0  0  0  0  0  0
   -4.2966   -1.1194   -0.1397 C   0  0  0  0  0  0  0  0  0  0  0  0
   -5.6913   -1.5974   -0.1852 C   0  0  0  0  0  0  0  0  0  0  0  0
   -6.6310   -0.7681   -0.2356 O   0  0  0  0  0  0  0  0  0  0  0  0
   -6.0208   -2.9754   -0.1740 N   0  0  0  0  0  0  0  0  0  0  0  0
   -4.0476    0.1733   -0.1547 C   0  0  0  0  0  0  0  0  0  0  0  0
   -2.6453    0.6620   -0.1122 C   0  0  1  0  0  0  0  0  0  0  0  0
   -2.7124    2.0651    0.2484 N   0  0  0  0  0  4  0  0  0  0  0  0
   -1.6803    2.8842   -0.2990 C   0  0  0  0  0  0  0  0  0  0  0  0
   -2.9481    2.2731    1.6689 C   0  0  0  0  0  0  0  0  0  0  0  0
   -1.8328   -0.1642    0.8330 C   0  0  2  0  0  0  0  0  0  0  0  0
   -0.3970    0.2792    0.9502 C   0  0  0  0  0  0  0  0  0  0  0  0
   -5.1307    1.0837   -0.2118 O   0  0  0  0  0  1  0  0  0  0  0  0
    1.5690   -2.4064   -0.2421 C   0  0  0  0  0  0  0  0  0  0  0  0
    1.3974   -3.8051   -0.2007 O   0  0  0  0  0  1  0  0  0  0  0  0
  1  2  1  0
  2  3  1  0
  2  4  1  0
  4  5  2  0
  5  6  1  0
  6  7  2  0
  7  8  1  0
  7  9  1  0
  9 10  2  0
 10 11  1  0
 12 11  1  1
 12 13  1  0
 13 14  1  0
 14 15  2  0
 14 16  1  0
 16 17  1  1
 16 18  1  0
 18 19  2  0
 18 20  1  0
 20 21  1  0
 21 22  2  0
 21 23  1  0
 20 24  2  0
 24 25  1  0
 25 26  1  1
 26 27  1  0
 26 28  1  0
 25 29  1  0
 29 30  1  6
 24 31  1  0
 13 32  2  0
 32 33  1  0
 30 12  1  0
 29 16  1  0
 32  9  1  0
 10  4  1  0
M  CHG  3  26   1  31  -1  33  -1
M  END

