
     RDKit          3D

 36 36  0  0  0  0  0  0  0  0999 V2000
    0.7686    1.1183    0.4691 C   0  0  2  0  0  0  0  0  0  0  0  0
    0.7950    0.8225    1.8285 O   0  0  0  0  0  0  0  0  0  0  0  0
    1.7600    1.8417    2.7256 P   0  0  0  0  0  5  0  0  0  0  0  0
    0.7774    2.5815    3.9048 O   0  0  0  0  0  1  0  0  0  0  0  0
    2.5016    3.0170    1.7649 O   0  0  0  0  0  1  0  0  0  0  0  0
    2.8028    1.0029    3.4289 O   0  0  0  0  0  0  0  0  0  0  0  0
   -0.6228    1.4134   -0.0132 C   0  0  2  0  0  0  0  0  0  0  0  0
   -1.3342    1.9327    1.0601 O   0  0  0  0  0  0  0  0  0  0  0  0
   -1.8442    3.5149    0.7889 P   0  0  0  0  0  5  0  0  0  0  0  0
   -3.3680    3.4757    0.0681 O   0  0  0  0  0  1  0  0  0  0  0  0
   -1.9484    4.1941    2.1364 O   0  0  0  0  0  0  0  0  0  0  0  0
   -0.7361    4.3771   -0.1503 O   0  0  0  0  0  1  0  0  0  0  0  0
   -1.3239    0.2012   -0.5548 C   0  0  1  0  0  0  0  0  0  0  0  0
   -1.3500    0.2529   -1.9155 O   0  0  0  0  0  0  0  0  0  0  0  0
   -2.7728    0.3781   -2.6938 P   0  0  0  0  0  5  0  0  0  0  0  0
   -3.2171   -1.0154   -3.5770 O   0  0  0  0  0  1  0  0  0  0  0  0
   -3.8677    0.5557   -1.6595 O   0  0  0  0  0  0  0  0  0  0  0  0
   -2.9157    1.6782   -3.7577 O   0  0  0  0  0  1  0  0  0  0  0  0
   -0.8162   -1.0913    0.0234 C   0  0  2  0  0  0  0  0  0  0  0  0
   -1.1938   -1.2446    1.3599 O   0  0  0  0  0  0  0  0  0  0  0  0
   -2.2111   -2.5376    1.6328 P   0  0  0  0  0  5  0  0  0  0  0  0
   -3.0689   -2.8088    0.4258 O   0  0  0  0  0  0  0  0  0  0  0  0
   -3.1264   -2.2087    3.0174 O   0  0  0  0  0  1  0  0  0  0  0  0
   -1.2534   -3.9005    2.0012 O   0  0  0  0  0  1  0  0  0  0  0  0
    0.6369   -1.3505   -0.0842 C   0  0  1  0  0  0  0  0  0  0  0  0
    0.9598   -2.3008   -1.0458 O   0  0  0  0  0  0  0  0  0  0  0  0
    1.7258   -3.6344   -0.3547 P   0  0  0  0  0  5  0  0  0  0  0  0
    0.7954   -4.7904   -0.1436 O   0  0  0  0  0  0  0  0  0  0  0  0
    3.0801   -4.1067   -1.2485 O   0  0  0  0  0  1  0  0  0  0  0  0
    2.3033   -3.1574    1.1750 O   0  0  0  0  0  1  0  0  0  0  0  0
    1.3709   -0.0654   -0.2542 C   0  0  1  0  0  0  0  0  0  0  0  0
    1.6510    0.2464   -1.5719 O   0  0  0  0  0  0  0  0  0  0  0  0
    3.2120    0.2933   -2.0259 P   0  0  0  0  0  5  0  0  0  0  0  0
    3.8069    1.7745   -2.5277 O   0  0  0  0  0  1  0  0  0  0  0  0
    3.4684   -0.8123   -3.2951 O   0  0  0  0  0  1  0  0  0  0  0  0
    4.0874   -0.1726   -0.8633 O   0  0  0  0  0  0  0  0  0  0  0  0
  1  2  1  1
  2  3  1  0
  3  4  1  0
  3  5  1  0
  3  6  2  0
  1  7  1  0
  7  8  1  1
  8  9  1  0
  9 10  1  0
  9 11  2  0
  9 12  1  0
  7 13  1  0
 13 14  1  6
 14 15  1  0
 15 16  1  0
 15 17  2  0
 15 18  1  0
 13 19  1  0
 19 20  1  1
 20 21  1  0
 21 22  2  0
 21 23  1  0
 21 24  1  0
 19 25  1  0
 25 26  1  6
 26 27  1  0
 27 28  2  0
 27 29  1  0
 27 30  1  0
 25 31  1  0
 31 32  1  6
 32 33  1  0
 33 34  1  0
 33 35  1  0
 33 36  2  0
 31  1  1  0
M  CHG  8   4  -1   5  -1  10  -1  12  -1  16  -1  18  -1  23  -1  24  -1
M  CHG  4  29  -1  30  -1  34  -1  35  -1
M  END

