
     RDKit          3D

 55 57  0  0  0  0  0  0  0  0999 V2000
   15.2081   -0.5634   -2.4987 C   0  0  0  0  0  0  0  0  0  0  0  0
   14.7239   -0.2254   -1.1150 C   0  0  2  0  0  0  0  0  0  0  0  0
   13.2165   -0.2506   -1.0603 C   0  0  0  0  0  0  0  0  0  0  0  0
   12.6345    0.1925   -2.0168 O   0  0  0  0  0  0  0  0  0  0  0  0
   12.3952   -0.9041    0.3463 S   0  0  0  0  0  0  0  0  0  0  0  0
   10.6254   -0.6361    0.3436 C   0  0  0  0  0  0  0  0  0  0  0  0
    9.8969   -1.3101   -0.8063 C   0  0  0  0  0  0  0  0  0  0  0  0
    8.4872   -1.0139   -0.6407 N   0  0  0  0  0  0  0  0  0  0  0  0
    7.9661    0.3209   -0.6668 C   0  0  0  0  0  0  0  0  0  0  0  0
    8.7043    1.2735   -0.8598 O   0  0  0  0  0  0  0  0  0  0  0  0
    6.4867    0.4542   -0.4379 C   0  0  0  0  0  0  0  0  0  0  0  0
    6.0712    1.8838   -0.4895 C   0  0  0  0  0  0  0  0  0  0  0  0
    4.6870    2.1300   -0.2072 N   0  0  0  0  0  0  0  0  0  0  0  0
    3.6530    1.5175   -0.9676 C   0  0  0  0  0  0  0  0  0  0  0  0
    3.8727    0.7328   -1.9027 O   0  0  0  0  0  0  0  0  0  0  0  0
    2.2221    1.8309   -0.6244 C   0  0  2  0  0  0  0  0  0  0  0  0
    2.2103    2.9805    0.1260 O   0  0  0  0  0  0  0  0  0  0  0  0
    1.6244    0.7112    0.2183 C   0  0  0  0  0  0  0  0  0  0  0  0
    2.4168    0.5627    1.4911 C   0  0  0  0  0  0  0  0  0  0  0  0
    1.6972   -0.5618   -0.5866 C   0  0  0  0  0  0  0  0  0  0  0  0
    0.1836    1.0394    0.4906 C   0  0  0  0  0  0  0  0  0  0  0  0
   -0.4494    0.0786    1.2654 O   0  0  0  0  0  0  0  0  0  0  0  0
   -2.0605    0.4900    1.5630 P   0  0  0  0  0  5  0  0  0  0  0  0
   -2.3579    1.8354    0.8983 O   0  0  0  0  0  0  0  0  0  0  0  0
   -3.1252   -0.6965    0.9664 O   0  0  0  0  0  0  0  0  0  0  0  0
   -4.6606   -0.3514    1.6438 P   0  0  0  0  0  5  0  0  0  0  0  0
   -4.6282   -0.5366    3.1470 O   0  0  0  0  0  0  0  0  0  0  0  0
   -5.7958   -1.3223    0.8956 O   0  0  0  0  0  0  0  0  0  0  0  0
   -7.0293   -1.2814    1.5229 C   0  0  0  0  0  0  0  0  0  0  0  0
   -8.0188   -2.1771    0.8170 C   0  0  2  0  0  0  0  0  0  0  0  0
   -8.2337   -1.7420   -0.6189 C   0  0  1  0  0  0  0  0  0  0  0  0
   -7.2838   -2.3177   -1.4648 O   0  0  0  0  0  0  0  0  0  0  0  0
   -6.4310   -1.0648   -2.2046 P   0  0  0  0  0  5  0  0  0  0  0  0
   -4.7535   -1.2378   -2.0210 O   0  0  0  0  0  1  0  0  0  0  0  0
   -6.7930    0.2917   -1.6292 O   0  0  0  0  0  0  0  0  0  0  0  0
   -6.7522   -1.0012   -3.8787 O   0  0  0  0  0  1  0  0  0  0  0  0
   -9.6248   -2.2430   -0.8841 C   0  0  1  0  0  0  0  0  0  0  0  0
   -9.6202   -3.5591   -1.3511 O   0  0  0  0  0  0  0  0  0  0  0  0
  -10.2251   -2.2747    0.4958 C   0  0  1  0  0  0  0  0  0  0  0  0
   -9.2395   -2.1494    1.4317 O   0  0  0  0  0  0  0  0  0  0  0  0
  -11.1641   -1.1598    0.6441 N   0  0  0  0  0  0  0  0  0  0  0  0
  -11.0027   -0.0749    1.4172 C   0  0  0  0  0  0  0  0  0  0  0  0
  -10.0101    0.3133    2.2460 N   0  0  0  0  0  0  0  0  0  0  0  0
  -10.1368    1.4855    2.9095 C   0  0  0  0  0  0  0  0  0  0  0  0
  -11.2393    2.2436    2.7359 N   0  0  0  0  0  0  0  0  0  0  0  0
  -12.2496    1.9040    1.9257 C   0  0  0  0  0  0  0  0  0  0  0  0
  -12.1245    0.6980    1.2418 C   0  0  0  0  0  0  0  0  0  0  0  0
  -12.9585    0.0879    0.3693 N   0  0  0  0  0  0  0  0  0  0  0  0
  -12.3456   -1.0620    0.0111 C   0  0  0  0  0  0  0  0  0  0  0  0
  -13.3979    2.7161    1.7623 N   0  0  0  0  0  0  0  0  0  0  0  0
   -4.9423    1.2967    1.3487 O   0  0  0  0  0  1  0  0  0  0  0  0
   -2.2455    0.6929    3.2342 O   0  0  0  0  0  1  0  0  0  0  0  0
   15.1982    1.1386   -0.7955 C   0  0  0  0  0  0  0  0  0  0  0  0
   14.3316    2.2325   -0.8229 O   0  0  0  0  0  1  0  0  0  0  0  0
   16.3850    1.3528   -0.4923 O   0  0  0  0  0  0  0  0  0  0  0  0
  2  1  1  6
  2  3  1  0
  3  4  2  0
  3  5  1  0
  5  6  1  0
  6  7  1  0
  7  8  1  0
  8  9  1  0
  9 10  2  0
  9 11  1  0
 11 12  1  0
 12 13  1  0
 13 14  1  0
 14 15  2  0
 14 16  1  0
 16 17  1  1
 16 18  1  0
 18 19  1  0
 18 20  1  0
 18 21  1  0
 21 22  1  0
 22 23  1  0
 23 24  2  0
 23 25  1  0
 25 26  1  0
 26 27  2  0
 26 28  1  0
 28 29  1  0
 30 29  1  1
 30 31  1  0
 31 32  1  6
 32 33  1  0
 33 34  1  0
 33 35  2  0
 33 36  1  0
 31 37  1  0
 37 38  1  1
 37 39  1  0
 39 40  1  0
 39 41  1  6
 41 42  1  0
 42 43  2  0
 43 44  1  0
 44 45  2  0
 45 46  1  0
 46 47  2  0
 47 48  1  0
 48 49  2  0
 46 50  1  0
 26 51  1  0
 23 52  1  0
  2 53  1  0
 53 54  1  0
 53 55  2  0
 40 30  1  0
 49 41  1  0
 47 42  1  0
M  CHG  5  34  -1  36  -1  51  -1  52  -1  54  -1
M  END

