
     RDKit          3D

 10  9  0  0  0  0  0  0  0  0999 V2000
    3.0425    1.5687    0.4046 C   0  0  0  0  0  0  0  0  0  0  0  0
    1.8300    0.3007    0.6712 S   0  0  0  0  0  3  0  0  0  0  0  0
    0.3284    0.6184   -0.1870 C   0  0  0  0  0  0  0  0  0  0  0  0
   -0.6304   -0.5105    0.1032 C   0  0  0  0  0  0  0  0  0  0  0  0
   -1.9618   -0.3192   -0.6012 C   0  0  2  0  0  0  0  0  0  0  0  0
   -2.6176    0.8930   -0.2021 N   0  0  0  0  0  4  0  0  0  0  0  0
   -2.8144   -1.4656   -0.2309 C   0  0  0  0  0  0  0  0  0  0  0  0
   -3.7550   -1.2985    0.5719 O   0  0  0  0  0  0  0  0  0  0  0  0
   -2.6020   -2.7266   -0.7488 O   0  0  0  0  0  1  0  0  0  0  0  0
    2.5010   -1.2844    0.3507 C   0  0  0  0  0  0  0  0  0  0  0  0
  1  2  1  0
  2  3  1  0
  3  4  1  0
  4  5  1  0
  5  6  1  1
  5  7  1  0
  7  8  2  0
  7  9  1  0
  2 10  1  0
M  CHG  3   2   1   6   1   9  -1
M  END

