
     RDKit          3D

 16 15  0  0  0  0  0  0  0  0999 V2000
   -2.9409    0.5426   -1.4377 C   0  0  0  0  0  0  0  0  0  0  0  0
   -2.6835    0.2383    0.0299 C   0  0  2  0  0  0  0  0  0  0  0  0
   -1.4109   -0.5213    0.2353 C   0  0  2  0  0  0  0  0  0  0  0  0
   -0.1583    0.2634   -0.0682 C   0  0  1  0  0  0  0  0  0  0  0  0
    1.0529   -0.5203    0.4106 C   0  0  1  0  0  0  0  0  0  0  0  0
    2.3010    0.3014    0.1698 C   0  0  0  0  0  0  0  0  0  0  0  0
    3.3788   -0.4375    0.6540 O   0  0  0  0  0  0  0  0  0  0  0  0
    4.7753    0.4774    0.3865 P   0  0  0  0  0  5  0  0  0  0  0  0
    4.4359    1.9084   -0.4048 O   0  0  0  0  0  1  0  0  0  0  0  0
    5.8267   -0.4391   -0.5833 O   0  0  0  0  0  1  0  0  0  0  0  0
    5.4825    0.7837    1.6843 O   0  0  0  0  0  0  0  0  0  0  0  0
    0.8760   -0.7787    1.7529 O   0  0  0  0  0  0  0  0  0  0  0  0
   -0.0270    0.5481   -1.4156 O   0  0  0  0  0  0  0  0  0  0  0  0
   -1.4082   -1.7308   -0.4724 O   0  0  0  0  0  0  0  0  0  0  0  0
   -3.7213   -0.5944    0.5067 O   0  0  0  0  0  0  0  0  0  0  0  0
   -4.1911    1.1721   -1.4866 O   0  0  0  0  0  0  0  0  0  0  0  0
  1  2  1  0
  2  3  1  0
  3  4  1  0
  4  5  1  0
  5  6  1  0
  6  7  1  0
  7  8  1  0
  8  9  1  0
  8 10  1  0
  8 11  2  0
  5 12  1  1
  4 13  1  6
  3 14  1  6
  2 15  1  6
  1 16  1  0
M  CHG  2   9  -1  10  -1
M  END

