
     RDKit          3D

 12 11  0  0  0  0  0  0  0  0999 V2000
    2.7062   -0.3609    0.2568 C   0  0  0  0  0  0  0  0  0  0  0  0
    1.9399    0.9243    0.0428 C   0  0  2  0  0  0  0  0  0  0  0  0
    0.5208    0.8337    0.5395 C   0  0  2  0  0  0  0  0  0  0  0  0
   -0.3163   -0.1076   -0.3148 C   0  0  1  0  0  0  0  0  0  0  0  0
   -1.7533    0.0725    0.1538 C   0  0  1  0  0  0  0  0  0  0  0  0
   -2.7290   -0.6177   -0.7583 C   0  0  0  0  0  0  0  0  0  0  0  0
   -4.0097   -0.3362   -0.2852 O   0  0  0  0  0  0  0  0  0  0  0  0
   -1.8788   -0.3784    1.4568 O   0  0  0  0  0  0  0  0  0  0  0  0
   -0.2116    0.3554   -1.6366 O   0  0  0  0  0  0  0  0  0  0  0  0
   -0.0427    2.1090    0.3683 O   0  0  0  0  0  0  0  0  0  0  0  0
    1.9308    1.2889   -1.2862 O   0  0  0  0  0  0  0  0  0  0  0  0
    2.6981   -0.7025    1.6036 O   0  0  0  0  0  0  0  0  0  0  0  0
  1  2  1  0
  2  3  1  0
  3  4  1  0
  4  5  1  0
  5  6  1  0
  6  7  1  0
  5  8  1  1
  4  9  1  6
  3 10  1  6
  2 11  1  6
  1 12  1  0
M  END

