
     RDKit          3D

 46 51  0  0  0  0  0  0  0  0999 V2000
   -3.4209   -0.0379    0.7985 C   0  0  0  0  0  0  0  0  0  0  0  0
   -2.6443    0.6999   -0.0899 O   0  0  0  0  0  0  0  0  0  0  0  0
   -2.1555    2.1653    0.5444 P   0  0  0  0  0  5  0  0  0  0  0  0
   -2.9378    3.3296   -0.0565 O   0  0  0  0  0  0  0  0  0  0  0  0
   -2.4838    2.2149    2.2221 O   0  0  0  0  0  1  0  0  0  0  0  0
   -0.4949    2.3400    0.2794 O   0  0  0  0  0  0  0  0  0  0  0  0
   -0.0106    1.2645   -0.9163 P   0  0  0  0  0  5  0  0  0  0  0  0
    1.5995    1.5387   -1.2777 O   0  0  0  0  0  0  0  0  0  0  0  0
    2.3043    0.3531   -1.4847 C   0  0  0  0  0  0  0  0  0  0  0  0
    3.7514    0.6981   -1.8056 C   0  0  1  0  0  0  0  0  0  0  0  0
    4.3583    1.3927   -0.7941 O   0  0  0  0  0  0  0  0  0  0  0  0
    5.7211    1.3066   -0.7286 C   0  0  1  0  0  0  0  0  0  0  0  0
    6.0886    0.5563    0.4440 N   0  0  0  0  0  0  0  0  0  0  0  0
    7.4551    0.2247    0.6607 C   0  0  0  0  0  0  0  0  0  0  0  0
    7.9653   -0.0814    1.8461 N   0  0  0  0  0  0  0  0  0  0  0  0
    9.2589   -0.3952    2.0508 C   0  0  0  0  0  0  0  0  0  0  0  0
    9.7555   -0.7140    3.3318 N   0  0  0  0  0  0  0  0  0  0  0  0
   10.0603   -0.3907    0.9716 N   0  0  0  0  0  0  0  0  0  0  0  0
    9.6096   -0.0899   -0.2595 C   0  0  0  0  0  0  0  0  0  0  0  0
   10.3666   -0.0876   -1.2670 O   0  0  0  0  0  0  0  0  0  0  0  0
    8.2801    0.2315   -0.4633 C   0  0  0  0  0  0  0  0  0  0  0  0
    7.7718    0.5531   -1.7450 N   0  0  0  0  0  0  0  0  0  0  0  0
    6.3822    0.7901   -1.9793 C   0  0  1  0  0  0  0  0  0  0  0  0
    5.7449   -0.5353   -2.2826 C   0  0  0  0  0  0  0  0  0  0  0  0
    6.6597   -1.9762   -2.7337 S   0  0  0  0  0  0  0  0  0  0  0  0
    4.4206   -0.5578   -2.1889 C   0  0  0  0  0  0  0  0  0  0  0  0
    3.4923   -2.0796   -2.5222 S   0  0  0  0  0  1  0  0  0  0  0  0
   -0.2378   -0.1644   -0.4336 O   0  0  0  0  0  0  0  0  0  0  0  0
   -1.0212    1.4795   -2.2657 O   0  0  0  0  0  1  0  0  0  0  0  0
   -3.8503   -1.3560    0.2040 C   0  0  1  0  0  0  0  0  0  0  0  0
   -4.6164   -2.1088    1.0522 O   0  0  0  0  0  0  0  0  0  0  0  0
   -5.9352   -2.1051    0.6047 C   0  0  1  0  0  0  0  0  0  0  0  0
   -6.7018   -1.0237    1.1586 N   0  0  0  0  0  0  0  0  0  0  0  0
   -7.6564   -0.2419    0.6223 C   0  0  0  0  0  0  0  0  0  0  0  0
   -8.1093    0.6785    1.5596 C   0  0  0  0  0  0  0  0  0  0  0  0
   -7.4063    0.4315    2.6681 N   0  0  0  0  0  0  0  0  0  0  0  0
   -6.5625   -0.5880    2.4298 C   0  0  0  0  0  0  0  0  0  0  0  0
   -9.0918    1.5988    1.2592 C   0  0  0  0  0  0  0  0  0  0  0  0
   -9.5755    2.5510    2.1945 N   0  0  0  0  0  0  0  0  0  0  0  0
   -9.5969    1.5690    0.0141 N   0  0  0  0  0  0  0  0  0  0  0  0
   -9.1431    0.6592   -0.8982 C   0  0  0  0  0  0  0  0  0  0  0  0
   -8.1845   -0.2311   -0.5886 N   0  0  0  0  0  0  0  0  0  0  0  0
   -5.7920   -2.0793   -0.8721 C   0  0  2  0  0  0  0  0  0  0  0  0
   -5.3388   -3.3491   -1.2796 O   0  0  0  0  0  0  0  0  0  0  0  0
   -4.6299   -1.1339   -1.0730 C   0  0  2  0  0  0  0  0  0  0  0  0
   -3.9263   -1.4514   -2.2096 O   0  0  0  0  0  0  0  0  0  0  0  0
  1  2  1  0
  2  3  1  0
  3  4  2  0
  3  5  1  0
  3  6  1  0
  6  7  1  0
  7  8  1  0
  8  9  1  0
 10  9  1  1
 10 11  1  0
 11 12  1  0
 12 13  1  1
 13 14  1  0
 14 15  1  0
 15 16  2  0
 16 17  1  0
 16 18  1  0
 18 19  1  0
 19 20  2  0
 19 21  1  0
 21 22  1  0
 23 22  1  1
 23 24  1  0
 24 25  1  0
 24 26  2  0
 26 27  1  0
  7 28  2  0
  7 29  1  0
 30  1  1  1
 30 31  1  0
 31 32  1  0
 32 33  1  1
 33 34  1  0
 34 35  2  0
 35 36  1  0
 36 37  2  0
 35 38  1  0
 38 39  1  0
 38 40  2  0
 40 41  1  0
 41 42  2  0
 32 43  1  0
 43 44  1  1
 43 45  1  0
 45 46  1  6
 23 12  1  0
 26 10  1  0
 21 14  2  0
 37 33  1  0
 42 34  1  0
 45 30  1  0
M  CHG  3   5  -1  27  -1  29  -1
M  END

