
     RDKit          3D

  5  4  0  0  0  0  0  0  0  0999 V2000
   -0.9250   -0.1583    0.0786 C   0  0  0  0  0  0  0  0  0  0  0  0
    0.8284    0.1144   -0.0660 S   0  0  0  0  0  6  0  0  0  0  0  0
    1.4587    0.1160    1.3069 O   0  0  0  0  0  0  0  0  0  0  0  0
    1.4855   -1.0177   -0.8261 O   0  0  0  0  0  0  0  0  0  0  0  0
    1.0383    1.5800   -0.8472 O   0  0  0  0  0  1  0  0  0  0  0  0
  1  2  1  0
  2  3  2  0
  2  4  2  0
  2  5  1  0
M  CHG  1   5  -1
M  END

