
     RDKit          3D

132136  0  0  0  0  0  0  0  0999 V2000
   10.7008   -3.6330    0.8979 C   0  0  0  0  0  0  0  0  0  0  0  0
   10.8574   -2.1512    0.5305 C   0  0  0  0  0  0  0  0  0  0  0  0
   12.0993   -1.5954    1.0354 C   0  0  0  0  0  0  0  0  0  0  0  0
   12.2060   -1.2449    2.2454 O   0  0  0  0  0  0  0  0  0  0  0  0
   13.2392   -1.4169    0.2114 N   0  0  0  0  0  0  0  0  0  0  0  0
   14.5042   -0.8989    0.6160 C   0  0  0  0  0  0  0  0  0  0  0  0
   15.6511   -1.5593   -0.0374 C   0  0  0  0  0  0  0  0  0  0  0  0
   16.9400   -1.1236    0.2455 O   0  0  0  0  0  0  0  0  0  0  0  0
   15.4777   -2.4891   -0.8322 O   0  0  0  0  0  0  0  0  0  0  0  0
   14.5602    0.5909    0.2092 C   0  0  0  0  0  0  0  0  0  0  0  0
    9.6758   -1.4197    1.0106 N   0  0  0  0  0  0  0  0  0  0  0  0
    8.5583   -1.2162    0.1204 C   0  0  0  0  0  0  0  0  0  0  0  0
    8.6531   -1.7170   -1.0141 O   0  0  0  0  0  0  0  0  0  0  0  0
    7.3751   -0.4668    0.4958 C   0  0  0  0  0  0  0  0  0  0  0  0
    7.5662    1.0263    0.0599 C   0  0  0  0  0  0  0  0  0  0  0  0
    7.9639    1.8959    1.1978 C   0  0  0  0  0  0  0  0  0  0  0  0
    6.8668    2.8152    1.6593 C   0  0  0  0  0  0  0  0  0  0  0  0
    7.2665    4.2432    1.3237 C   0  0  0  0  0  0  0  0  0  0  0  0
    8.7267    4.3565    1.6740 C   0  0  0  0  0  0  0  0  0  0  0  0
    9.5137    4.6790    0.7505 O   0  0  0  0  0  0  0  0  0  0  0  0
    9.0861    4.0984    2.9726 O   0  0  0  0  0  0  0  0  0  0  0  0
    7.0362    4.5032   -0.0709 N   0  0  0  0  0  0  0  0  0  0  0  0
    7.0035    5.7376   -0.7418 C   0  0  0  0  0  0  0  0  0  0  0  0
    6.0352    6.8470   -0.5592 C   0  0  0  0  0  0  0  0  0  0  0  0
    6.9085    8.0952   -0.3762 C   0  0  0  0  0  0  0  0  0  0  0  0
    5.1871    6.7295    0.5987 N   0  0  0  0  0  0  0  0  0  0  0  0
    3.8398    6.4224    0.6695 C   0  0  0  0  0  0  0  0  0  0  0  0
    2.6630    7.2719    0.2514 C   0  0  0  0  0  0  0  0  0  0  0  0
    3.1405    8.6171   -0.2384 C   0  0  0  0  0  0  0  0  0  0  0  0
    2.0599    9.5639   -0.6190 C   0  0  0  0  0  0  0  0  0  0  0  0
    1.1562   10.0524    0.4479 C   0  0  0  0  0  0  0  0  0  0  0  0
    1.8074   10.8730    1.5044 C   0  0  0  0  0  0  0  0  0  0  0  0
    2.4636   12.0582    0.9687 N   0  0  0  0  0  0  0  0  0  0  0  0
    2.6634   10.1820    2.4399 C   0  0  0  0  0  0  0  0  0  0  0  0
    2.2581    9.1483    3.0389 O   0  0  0  0  0  0  0  0  0  0  0  0
    3.9691   10.6308    2.7172 O   0  0  0  0  0  0  0  0  0  0  0  0
    2.0941    6.4976   -0.8779 N   0  0  0  0  0  0  0  0  0  0  0  0
    1.0341    5.6024   -0.8653 C   0  0  0  0  0  0  0  0  0  0  0  0
   -0.4371    5.8519   -0.7243 C   0  0  0  0  0  0  0  0  0  0  0  0
   -1.1390    4.7717   -1.4049 N   0  0  0  0  0  0  0  0  0  0  0  0
   -2.0447    3.8382   -0.9297 C   0  0  0  0  0  0  0  0  0  0  0  0
   -1.6592    2.5941   -0.8046 O   0  0  0  0  0  0  0  0  0  0  0  0
   -3.4623    4.0165   -0.5136 C   0  0  0  0  0  0  0  0  0  0  0  0
   -3.6561    3.8332    0.9106 N   0  0  0  0  0  0  0  0  0  0  0  0
   -4.8620    3.3379    1.4209 C   0  0  0  0  0  0  0  0  0  0  0  0
   -6.0948    3.0256    0.6648 C   0  0  0  0  0  0  0  0  0  0  0  0
   -6.6582    1.7834    1.0452 O   0  0  0  0  0  0  0  0  0  0  0  0
   -6.2371    0.7719    0.2238 C   0  0  0  0  0  0  0  0  0  0  0  0
   -7.4049    0.2309   -0.5771 C   0  0  0  0  0  0  0  0  0  0  0  0
   -8.5806    0.2094    0.1419 O   0  0  0  0  0  0  0  0  0  0  0  0
   -9.4700    1.2313   -0.1785 C   0  0  0  0  0  0  0  0  0  0  0  0
  -10.0515    1.8260    1.0662 C   0  0  0  0  0  0  0  0  0  0  0  0
  -10.6084    0.7607    1.8895 N   0  0  0  0  0  0  0  0  0  0  0  0
  -10.2052    0.5295    3.2298 C   0  0  0  0  0  0  0  0  0  0  0  0
   -9.3488    1.2502    3.7562 O   0  0  0  0  0  0  0  0  0  0  0  0
  -10.8103   -0.5809    4.0084 C   0  0  0  0  0  0  0  0  0  0  0  0
  -11.0898    2.8465    0.7004 C   0  0  0  0  0  0  0  0  0  0  0  0
  -12.3420    2.5058    1.2113 O   0  0  0  0  0  0  0  0  0  0  0  0
  -11.1616    2.9683   -0.7989 C   0  0  0  0  0  0  0  0  0  0  0  0
  -12.2537    3.8183   -1.0807 O   0  0  0  0  0  0  0  0  0  0  0  0
  -11.3255    1.6503   -1.4771 C   0  0  0  0  0  0  0  0  0  0  0  0
  -12.7579    1.1886   -1.3412 C   0  0  0  0  0  0  0  0  0  0  0  0
  -13.6545    2.1361   -1.8258 O   0  0  0  0  0  0  0  0  0  0  0  0
  -10.5046    0.6518   -0.9570 O   0  0  0  0  0  0  0  0  0  0  0  0
   -7.0635   -1.0792   -1.2160 C   0  0  0  0  0  0  0  0  0  0  0  0
   -7.8763   -2.2532   -0.7712 C   0  0  0  0  0  0  0  0  0  0  0  0
   -9.2204   -1.9880   -0.9131 O   0  0  0  0  0  0  0  0  0  0  0  0
   -5.6896   -1.3501   -1.1264 O   0  0  0  0  0  0  0  0  0  0  0  0
   -5.2061   -1.5020    0.1461 C   0  0  0  0  0  0  0  0  0  0  0  0
   -5.5207   -2.6324    0.8165 O   0  0  0  0  0  0  0  0  0  0  0  0
   -5.0290   -3.8332    0.4672 C   0  0  0  0  0  0  0  0  0  0  0  0
   -4.1704   -4.3278    1.6549 C   0  0  0  0  0  0  0  0  0  0  0  0
   -5.0527   -4.8184    2.7703 C   0  0  0  0  0  0  0  0  0  0  0  0
   -5.9616   -3.7686    3.0421 O   0  0  0  0  0  0  0  0  0  0  0  0
   -3.2061   -5.2343    1.2545 O   0  0  0  0  0  0  0  0  0  0  0  0
   -3.7513   -6.1752    0.3456 C   0  0  0  0  0  0  0  0  0  0  0  0
   -3.0739   -7.3126    0.4635 O   0  0  0  0  0  0  0  0  0  0  0  0
   -2.3049   -7.8452   -0.5056 C   0  0  0  0  0  0  0  0  0  0  0  0
   -2.5997   -9.2960   -0.8175 C   0  0  0  0  0  0  0  0  0  0  0  0
   -3.5807   -9.4735   -1.9673 C   0  0  0  0  0  0  0  0  0  0  0  0
   -4.8234   -9.0234   -1.5303 O   0  0  0  0  0  0  0  0  0  0  0  0
   -1.3667   -9.8248   -1.3488 O   0  0  0  0  0  0  0  0  0  0  0  0
   -0.3779   -9.9883   -0.3687 C   0  0  0  0  0  0  0  0  0  0  0  0
   -0.1134   -8.8722    0.2907 C   0  0  0  0  0  0  0  0  0  0  0  0
   -0.8663   -7.6530   -0.1012 C   0  0  0  0  0  0  0  0  0  0  0  0
   -0.1869   -6.9415   -1.1233 O   0  0  0  0  0  0  0  0  0  0  0  0
    0.9381   -6.3105   -0.6648 C   0  0  0  0  0  0  0  0  0  0  0  0
    2.1208   -7.1443   -0.9615 C   0  0  0  0  0  0  0  0  0  0  0  0
    3.4214   -7.0006   -0.4338 N   0  0  0  0  0  0  0  0  0  0  0  0
    4.1681   -5.7336   -0.3634 C   0  0  0  0  0  0  0  0  0  0  0  0
    4.1488   -5.0056   -1.6506 C   0  0  0  0  0  0  0  0  0  0  0  0
    3.8290   -5.7644   -2.6589 O   0  0  0  0  0  0  0  0  0  0  0  0
    4.4325   -3.6482   -1.8315 N   0  0  0  0  0  0  0  0  0  0  0  0
    5.7076   -2.9539   -1.5744 C   0  0  0  0  0  0  0  0  0  0  0  0
    5.5769   -2.1306   -0.3515 C   0  0  0  0  0  0  0  0  0  0  0  0
    6.0925   -0.9159    0.0336 N   0  0  0  0  0  0  0  0  0  0  0  0
    4.7949   -2.7280    0.5078 O   0  0  0  0  0  0  0  0  0  0  0  0
    5.9609   -2.1726   -2.8408 C   0  0  0  0  0  0  0  0  0  0  0  0
    6.0456   -3.1294   -3.9948 C   0  0  0  0  0  0  0  0  0  0  0  0
    7.1365   -4.0945   -3.8617 C   0  0  0  0  0  0  0  0  0  0  0  0
    8.1195   -4.0524   -2.8920 O   0  0  0  0  0  0  0  0  0  0  0  0
    7.2563   -5.0860   -4.6766 O   0  0  0  0  0  0  0  0  0  0  0  0
    5.6237   -5.9829   -0.0193 C   0  0  0  0  0  0  0  0  0  0  0  0
    1.9453   -8.1026   -1.7879 O   0  0  0  0  0  0  0  0  0  0  0  0
    0.9682   -4.9522   -1.3560 C   0  0  0  0  0  0  0  0  0  0  0  0
    0.8515   -8.8412    1.3495 N   0  0  0  0  0  0  0  0  0  0  0  0
    1.6104   -9.9085    1.7827 C   0  0  0  0  0  0  0  0  0  0  0  0
    1.6304  -11.0804    1.3708 O   0  0  0  0  0  0  0  0  0  0  0  0
    2.5757   -9.6498    2.9306 C   0  0  0  0  0  0  0  0  0  0  0  0
   -3.8780   -5.4722   -0.9460 C   0  0  0  0  0  0  0  0  0  0  0  0
   -5.0494   -5.9569   -1.6504 N   0  0  0  0  0  0  0  0  0  0  0  0
   -5.1825   -5.9544   -3.0777 C   0  0  0  0  0  0  0  0  0  0  0  0
   -6.3614   -6.4332   -3.7931 C   0  0  0  0  0  0  0  0  0  0  0  0
   -4.1913   -5.4996   -3.7024 O   0  0  0  0  0  0  0  0  0  0  0  0
   -4.1673   -3.9538   -0.7289 C   0  0  0  0  0  0  0  0  0  0  0  0
   -4.7244   -3.5606   -1.9345 O   0  0  0  0  0  0  0  0  0  0  0  0
   -5.5223   -0.2868    1.0141 C   0  0  0  0  0  0  0  0  0  0  0  0
   -6.2551   -0.5947    2.1978 N   0  0  0  0  0  0  0  0  0  0  0  0
   -5.8291   -0.3532    3.5082 C   0  0  0  0  0  0  0  0  0  0  0  0
   -6.6162   -0.6951    4.7019 C   0  0  0  0  0  0  0  0  0  0  0  0
   -4.6966    0.1916    3.6905 O   0  0  0  0  0  0  0  0  0  0  0  0
   -7.1207    4.0907    1.0526 C   0  0  0  0  0  0  0  0  0  0  0  0
   -4.9363    3.1205    2.6812 O   0  0  0  0  0  0  0  0  0  0  0  0
   -4.1099    5.2761   -1.0391 C   0  0  0  0  0  0  0  0  0  0  0  0
   -0.9046    7.1373   -1.3085 C   0  0  0  0  0  0  0  0  0  0  0  0
   -0.6602    7.2874   -2.7949 C   0  0  0  0  0  0  0  0  0  0  0  0
   -1.1796    8.6268   -3.1763 C   0  0  0  0  0  0  0  0  0  0  0  0
   -1.6911    9.5278   -2.2641 O   0  0  0  0  0  0  0  0  0  0  0  0
   -1.1568    8.9633   -4.3876 O   0  0  0  0  0  0  0  0  0  0  0  0
    1.2667    4.3272   -0.9911 O   0  0  0  0  0  0  0  0  0  0  0  0
    3.4729    5.2871    1.1430 O   0  0  0  0  0  0  0  0  0  0  0  0
    7.8870    6.0209   -1.6442 O   0  0  0  0  0  0  0  0  0  0  0  0
  1  2  1  0
  2  3  1  0
  3  4  2  0
  3  5  1  0
  5  6  1  0
  6  7  1  0
  7  8  1  0
  7  9  2  0
  6 10  1  0
  2 11  1  0
 11 12  1  0
 12 13  2  0
 12 14  1  0
 14 15  1  0
 15 16  1  0
 16 17  1  0
 17 18  1  0
 18 19  1  0
 19 20  2  0
 19 21  1  0
 18 22  1  0
 22 23  1  0
 23 24  1  0
 24 25  1  0
 24 26  1  0
 26 27  1  0
 27 28  1  0
 28 29  1  0
 29 30  1  0
 30 31  1  0
 31 32  1  0
 32 33  1  0
 32 34  1  0
 34 35  2  0
 34 36  1  0
 28 37  1  0
 37 38  1  0
 38 39  1  0
 39 40  1  0
 40 41  1  0
 41 42  2  0
 41 43  1  0
 43 44  1  0
 44 45  1  0
 45 46  1  0
 46 47  1  0
 47 48  1  0
 48 49  1  0
 49 50  1  0
 50 51  1  0
 51 52  1  0
 52 53  1  0
 53 54  1  0
 54 55  2  0
 54 56  1  0
 52 57  1  0
 57 58  1  0
 57 59  1  0
 59 60  1  0
 59 61  1  0
 61 62  1  0
 62 63  1  0
 61 64  1  0
 49 65  1  0
 65 66  1  0
 66 67  1  0
 65 68  1  0
 68 69  1  0
 69 70  1  0
 70 71  1  0
 71 72  1  0
 72 73  1  0
 73 74  1  0
 72 75  1  0
 75 76  1  0
 76 77  1  0
 77 78  1  0
 78 79  1  0
 79 80  1  0
 80 81  1  0
 79 82  1  0
 82 83  1  0
 83 84  2  0
 84 85  1  0
 85 86  1  0
 86 87  1  0
 87 88  1  0
 88 89  1  0
 89 90  1  0
 90 91  1  0
 91 92  2  0
 91 93  1  0
 93 94  1  0
 94 95  1  0
 95 96  1  0
 95 97  2  0
 94 98  1  0
 98 99  1  0
 99100  1  0
100101  1  0
100102  2  0
 90103  1  0
 88104  2  0
 87105  1  0
 84106  1  0
106107  1  0
107108  2  0
107109  1  0
 76110  1  0
110111  1  0
111112  1  0
112113  1  0
112114  2  0
110115  1  0
115116  1  0
 69117  1  0
117118  1  0
118119  1  0
119120  1  0
119121  2  0
 46122  1  0
 45123  2  0
 43124  1  0
 39125  1  0
125126  1  0
126127  1  0
127128  1  0
127129  2  0
 38130  2  0
 27131  2  0
 23132  2  0
 64 51  1  0
 96 14  1  0
 85 78  1  0
115 71  1  0
117 48  1  0
M  END

