
     RDKit          3D

 13 12  0  0  0  0  0  0  0  0999 V2000
   -6.5086    0.1358    0.6994 C   0  0  0  0  0  0  0  0  0  0  0  0
   -5.0741   -0.1449    0.9475 C   0  0  0  0  0  0  0  0  0  0  0  0
   -4.7230   -0.7547    1.9769 O   0  0  0  0  0  0  0  0  0  0  0  0
   -4.0593    0.2732    0.0191 N   0  0  0  0  0  0  0  0  0  0  0  0
   -2.6638   -0.0057    0.2707 C   0  0  0  0  0  0  0  0  0  0  0  0
   -1.8517    0.5484   -0.8652 C   0  0  0  0  0  0  0  0  0  0  0  0
   -0.3860    0.3305   -0.7249 C   0  0  0  0  0  0  0  0  0  0  0  0
    0.0334   -1.0425   -0.6537 N   0  0  0  0  0  4  0  0  0  0  0  0
    1.2897   -1.0637    0.1139 C   0  0  0  0  0  0  0  0  0  0  0  0
    2.2973   -0.1475   -0.5582 C   0  0  0  0  0  0  0  0  0  0  0  0
    3.5629   -0.2165    0.2765 C   0  0  0  0  0  0  0  0  0  0  0  0
    4.6544    0.6668   -0.3009 C   0  0  0  0  0  0  0  0  0  0  0  0
    5.8090    0.5104    0.5891 N   0  0  0  0  0  4  0  0  0  0  0  0
  1  2  1  0
  2  3  2  0
  2  4  1  0
  4  5  1  0
  5  6  1  0
  6  7  1  0
  7  8  1  0
  8  9  1  0
  9 10  1  0
 10 11  1  0
 11 12  1  0
 12 13  1  0
M  CHG  2   8   1  13   1
M  END

