
     RDKit          3D

  9  9  0  0  0  0  0  0  0  0999 V2000
   -1.9822   -0.5539    0.0865 C   0  0  0  0  0  0  0  0  0  0  0  0
   -1.0828   -1.4000    0.6229 N   0  0  0  0  0  0  0  0  0  0  0  0
    0.2348   -1.1494    0.6271 C   0  0  0  0  0  0  0  0  0  0  0  0
    0.7371    0.0077    0.0718 C   0  0  0  0  0  0  0  0  0  0  0  0
    2.1751    0.2976    0.0677 C   0  0  0  0  0  0  0  0  0  0  0  0
    2.5508    1.3770   -0.4597 O   0  0  0  0  0  0  0  0  0  0  0  0
    3.0890   -0.5900    0.6274 O   0  0  0  0  0  1  0  0  0  0  0  0
   -0.1719    0.8818   -0.4802 C   0  0  0  0  0  0  0  0  0  0  0  0
   -1.5154    0.6145   -0.4783 C   0  0  0  0  0  0  0  0  0  0  0  0
  1  2  2  0
  2  3  1  0
  3  4  2  0
  4  5  1  0
  5  6  2  0
  5  7  1  0
  4  8  1  0
  8  9  2  0
  9  1  1  0
M  CHG  1   7  -1
M  END

