
     RDKit          3D

 44 48  0  0  0  0  0  0  0  0999 V2000
    8.6285   -0.6075   -0.1611 C   0  0  0  0  0  0  0  0  0  0  0  0
    9.8348    0.0863   -0.2601 C   0  0  0  0  0  0  0  0  0  0  0  0
   11.1061   -0.5289    0.0495 C   0  0  0  0  0  0  0  0  0  0  0  0
   11.1549   -1.8698    0.4661 N   0  0  0  0  0  0  0  0  0  0  0  0
   12.1583    0.1304   -0.0532 O   0  0  0  0  0  0  0  0  0  0  0  0
    9.8039    1.4024   -0.6675 C   0  0  0  0  0  0  0  0  0  0  0  0
    8.6009    1.9883   -0.9617 C   0  0  0  0  0  0  0  0  0  0  0  0
    7.4296    1.2415   -0.8431 C   0  0  0  0  0  0  0  0  0  0  0  0
    7.4456   -0.0429   -0.4468 N   0  0  0  0  0  4  0  0  0  0  0  0
    6.2027   -0.7538   -0.3460 C   0  0  2  0  0  0  0  0  0  0  0  0
    5.1383    0.1040   -0.0019 O   0  0  0  0  0  0  0  0  0  0  0  0
    4.1026   -0.8298    0.1136 C   0  0  2  0  0  0  0  0  0  0  0  0
    2.8207   -0.1924    0.5846 C   0  0  0  0  0  0  0  0  0  0  0  0
    2.4780    0.7793   -0.3708 O   0  0  0  0  0  0  0  0  0  0  0  0
    1.0531    1.5716    0.0396 P   0  0  0  0  0  5  0  0  0  0  0  0
    0.3264    2.1247   -1.3664 O   0  0  0  0  0  0  0  0  0  0  0  0
   -1.0157    1.1925   -1.7983 P   0  0  0  0  0  5  0  0  0  0  0  0
   -2.3432    1.7819   -0.9388 O   0  0  0  0  0  0  0  0  0  0  0  0
   -3.5227    1.3193   -1.5235 C   0  0  0  0  0  0  0  0  0  0  0  0
   -4.7115    1.8645   -0.7300 C   0  0  1  0  0  0  0  0  0  0  0  0
   -5.9085    1.4408   -1.2607 O   0  0  0  0  0  0  0  0  0  0  0  0
   -6.8244    1.3866   -0.2112 C   0  0  1  0  0  0  0  0  0  0  0  0
   -7.9784    0.6066   -0.5678 N   0  0  0  0  0  0  0  0  0  0  0  0
   -8.7099   -0.2385    0.1878 C   0  0  0  0  0  0  0  0  0  0  0  0
   -9.7425   -0.7767   -0.5787 C   0  0  0  0  0  0  0  0  0  0  0  0
   -9.6122   -0.2412   -1.7908 N   0  0  0  0  0  0  0  0  0  0  0  0
   -8.5506    0.5906   -1.7824 C   0  0  0  0  0  0  0  0  0  0  0  0
  -10.6425   -1.6746   -0.0459 C   0  0  0  0  0  0  0  0  0  0  0  0
  -11.6853   -2.2125   -0.8356 N   0  0  0  0  0  0  0  0  0  0  0  0
  -10.4870   -2.0137    1.2451 N   0  0  0  0  0  0  0  0  0  0  0  0
   -9.4789   -1.4847    1.9833 C   0  0  0  0  0  0  0  0  0  0  0  0
   -8.5943   -0.6073    1.4745 N   0  0  0  0  0  0  0  0  0  0  0  0
   -6.0576    0.8131    0.9418 C   0  0  2  0  0  0  0  0  0  0  0  0
   -6.5674    1.3893    2.1219 O   0  0  0  0  0  0  0  0  0  0  0  0
   -4.6471    1.3475    0.6868 C   0  0  2  0  0  0  0  0  0  0  0  0
   -4.3052    2.3492    1.5685 O   0  0  0  0  0  0  0  0  0  0  0  0
   -0.8191   -0.2635   -1.5255 O   0  0  0  0  0  0  0  0  0  0  0  0
   -1.2485    1.4267   -3.4772 O   0  0  0  0  0  1  0  0  0  0  0  0
    1.2947    2.7575    0.9438 O   0  0  0  0  0  0  0  0  0  0  0  0
   -0.0006    0.4546    0.7658 O   0  0  0  0  0  1  0  0  0  0  0  0
    4.6686   -1.8173    1.0847 C   0  0  1  0  0  0  0  0  0  0  0  0
    4.1808   -3.0876    0.7328 O   0  0  0  0  0  0  0  0  0  0  0  0
    6.1674   -1.7455    0.7723 C   0  0  1  0  0  0  0  0  0  0  0  0
    6.6876   -2.9726    0.4397 O   0  0  0  0  0  0  0  0  0  0  0  0
  1  2  2  0
  2  3  1  0
  3  4  1  0
  3  5  2  0
  2  6  1  0
  6  7  2  0
  7  8  1  0
  8  9  2  0
 10  9  1  1
 10 11  1  0
 11 12  1  0
 12 13  1  1
 13 14  1  0
 14 15  1  0
 15 16  1  0
 16 17  1  0
 17 18  1  0
 18 19  1  0
 20 19  1  6
 20 21  1  0
 21 22  1  0
 22 23  1  6
 23 24  1  0
 24 25  2  0
 25 26  1  0
 26 27  2  0
 25 28  1  0
 28 29  1  0
 28 30  2  0
 30 31  1  0
 31 32  2  0
 22 33  1  0
 33 34  1  1
 33 35  1  0
 35 36  1  1
 17 37  2  0
 17 38  1  0
 15 39  2  0
 15 40  1  0
 12 41  1  0
 41 42  1  6
 41 43  1  0
 43 44  1  6
 27 23  1  0
 32 24  1  0
 35 20  1  0
 43 10  1  0
  9  1  1  0
M  CHG  3   9   1  38  -1  40  -1
M  END

