
     RDKit          3D

 44 48  0  0  0  0  0  0  0  0999 V2000
    7.7504    0.6972   -0.4906 C   0  0  0  0  0  0  0  0  0  0  0  0
    6.4454    0.3912   -0.9134 N   0  0  0  0  0  0  0  0  0  0  0  0
    5.4670    1.4228   -0.8108 C   0  0  0  0  0  0  0  0  0  0  0  0
    5.7321    2.6178   -0.3479 C   0  0  0  0  0  0  0  0  0  0  0  0
    7.0624    2.9935    0.1045 C   0  0  0  0  0  0  0  0  0  0  0  0
    8.0501    1.8994   -0.0167 C   0  0  0  0  0  0  0  0  0  0  0  0
    9.4500    2.0815    0.3883 C   0  0  0  0  0  0  0  0  0  0  0  0
   10.4060    1.0646    0.2849 N   0  0  0  0  0  0  0  0  0  0  0  0
    9.7786    3.2002    0.8414 O   0  0  0  0  0  0  0  0  0  0  0  0
    6.1226   -0.9247   -1.4314 C   0  0  2  0  0  0  0  0  0  0  0  0
    4.7817   -0.9479   -1.7132 O   0  0  0  0  0  0  0  0  0  0  0  0
    4.1181   -1.7177   -0.8033 C   0  0  2  0  0  0  0  0  0  0  0  0
    2.8380   -1.0874   -0.3017 C   0  0  0  0  0  0  0  0  0  0  0  0
    2.2143   -1.9334    0.6250 O   0  0  0  0  0  0  0  0  0  0  0  0
    0.7922   -1.2903    1.2161 P   0  0  0  0  0  5  0  0  0  0  0  0
    0.8031    0.3887    1.0425 O   0  0  0  0  0  0  0  0  0  0  0  0
   -0.5608    0.9674    0.2562 P   0  0  0  0  0  5  0  0  0  0  0  0
   -1.6740   -0.2518   -0.0225 O   0  0  0  0  0  0  0  0  0  0  0  0
   -2.9250    0.0447    0.5533 C   0  0  0  0  0  0  0  0  0  0  0  0
   -3.8916   -1.0899    0.2707 C   0  0  1  0  0  0  0  0  0  0  0  0
   -5.0917   -0.7771    0.8385 O   0  0  0  0  0  0  0  0  0  0  0  0
   -6.0567   -0.6689   -0.1249 C   0  0  1  0  0  0  0  0  0  0  0  0
   -7.0492    0.3134    0.1936 N   0  0  0  0  0  0  0  0  0  0  0  0
   -8.3922    0.1637    0.1390 C   0  0  0  0  0  0  0  0  0  0  0  0
   -8.9989    1.3441    0.5242 C   0  0  0  0  0  0  0  0  0  0  0  0
   -8.0092    2.2031    0.8103 N   0  0  0  0  0  0  0  0  0  0  0  0
   -6.8359    1.5669    0.6061 C   0  0  0  0  0  0  0  0  0  0  0  0
  -10.3678    1.5077    0.5723 C   0  0  0  0  0  0  0  0  0  0  0  0
  -10.9632    2.7344    0.9727 N   0  0  0  0  0  0  0  0  0  0  0  0
  -11.1246    0.4536    0.2230 N   0  0  0  0  0  0  0  0  0  0  0  0
  -10.5362   -0.7151   -0.1584 C   0  0  0  0  0  0  0  0  0  0  0  0
   -9.1925   -0.8518   -0.1978 N   0  0  0  0  0  0  0  0  0  0  0  0
   -5.3175   -0.3388   -1.4267 C   0  0  2  0  0  0  0  0  0  0  0  0
   -6.0532   -0.7552   -2.5302 O   0  0  0  0  0  0  0  0  0  0  0  0
   -4.0634   -1.1643   -1.2232 C   0  0  2  0  0  0  0  0  0  0  0  0
   -4.3294   -2.4795   -1.6536 O   0  0  0  0  0  0  0  0  0  0  0  0
   -0.1820    1.6059   -1.0810 O   0  0  0  0  0  0  0  0  0  0  0  0
   -1.2958    2.1243    1.2628 O   0  0  0  0  0  1  0  0  0  0  0  0
   -0.4123   -1.9182    0.5604 O   0  0  0  0  0  0  0  0  0  0  0  0
    0.6458   -1.6053    2.8894 O   0  0  0  0  0  1  0  0  0  0  0  0
    5.0708   -2.0260    0.3286 C   0  0  1  0  0  0  0  0  0  0  0  0
    4.8156   -3.2608    0.9175 O   0  0  0  0  0  0  0  0  0  0  0  0
    6.3921   -2.0083   -0.4128 C   0  0  1  0  0  0  0  0  0  0  0  0
    6.5252   -3.2050   -1.0778 O   0  0  0  0  0  0  0  0  0  0  0  0
  1  2  1  0
  2  3  1  0
  3  4  2  0
  4  5  1  0
  5  6  1  0
  6  7  1  0
  7  8  1  0
  7  9  2  0
 10  2  1  1
 10 11  1  0
 11 12  1  0
 12 13  1  1
 13 14  1  0
 14 15  1  0
 15 16  1  0
 16 17  1  0
 17 18  1  0
 18 19  1  0
 20 19  1  6
 20 21  1  0
 21 22  1  0
 22 23  1  1
 23 24  1  0
 24 25  2  0
 25 26  1  0
 26 27  2  0
 25 28  1  0
 28 29  1  0
 28 30  2  0
 30 31  1  0
 31 32  2  0
 22 33  1  0
 33 34  1  6
 33 35  1  0
 35 36  1  1
 17 37  2  0
 17 38  1  0
 15 39  2  0
 15 40  1  0
 12 41  1  0
 41 42  1  6
 41 43  1  0
 43 44  1  6
  6  1  2  0
 27 23  1  0
 32 24  1  0
 35 20  1  0
 43 10  1  0
M  CHG  2  38  -1  40  -1
M  END

