
     RDKit          3D

 22 23  0  0  0  0  0  0  0  0999 V2000
    3.0170   -0.2145    0.7787 C   0  0  0  0  0  0  0  0  0  0  0  0
    4.2717   -0.2184    0.1351 O   0  0  0  0  0  0  0  0  0  0  0  0
    5.3770    0.7211    0.9662 P   0  0  0  0  0  5  0  0  0  0  0  0
    5.8924    1.8600    0.0896 O   0  0  0  0  0  0  0  0  0  0  0  0
    4.6008    1.4361    2.2846 O   0  0  0  0  0  1  0  0  0  0  0  0
    6.6878   -0.2144    1.4791 O   0  0  0  0  0  1  0  0  0  0  0  0
    2.1032   -1.0997   -0.0693 C   0  0  2  0  0  0  0  0  0  0  0  0
    2.0231   -0.4623   -1.4340 C   0  0  1  0  0  0  0  0  0  0  0  0
    2.1335   -1.4353   -2.4259 O   0  0  0  0  0  0  0  0  0  0  0  0
    0.5878    0.0798   -1.3944 C   0  0  1  0  0  0  0  0  0  0  0  0
    0.0587    0.2255   -2.6460 O   0  0  0  0  0  0  0  0  0  0  0  0
   -0.0588   -1.0778   -0.6212 C   0  0  2  0  0  0  0  0  0  0  0  0
   -1.3893   -0.7918   -0.2119 N   0  0  0  0  0  4  0  0  0  0  0  0
   -2.3277   -1.7506   -0.3112 C   0  0  0  0  0  0  0  0  0  0  0  0
   -3.6440   -1.5367    0.0705 C   0  0  0  0  0  0  0  0  0  0  0  0
   -4.0150   -0.3090    0.5683 C   0  0  0  0  0  0  0  0  0  0  0  0
   -3.0669    0.6682    0.6716 C   0  0  0  0  0  0  0  0  0  0  0  0
   -1.7735    0.3922    0.2745 C   0  0  0  0  0  0  0  0  0  0  0  0
   -3.4385    1.9879    1.2003 C   0  0  0  0  0  0  0  0  0  0  0  0
   -2.5968    2.9103    1.3105 O   0  0  0  0  0  0  0  0  0  0  0  0
   -4.7780    2.2382    1.5995 N   0  0  0  0  0  0  0  0  0  0  0  0
    0.8398   -1.1878    0.4423 O   0  0  0  0  0  0  0  0  0  0  0  0
  1  2  1  0
  2  3  1  0
  3  4  2  0
  3  5  1  0
  3  6  1  0
  7  1  1  1
  7  8  1  0
  8  9  1  6
  8 10  1  0
 10 11  1  6
 10 12  1  0
 12 13  1  1
 13 14  2  0
 14 15  1  0
 15 16  2  0
 16 17  1  0
 17 18  2  0
 17 19  1  0
 19 20  2  0
 19 21  1  0
 12 22  1  0
 18 13  1  0
 22  7  1  0
M  CHG  3   5  -1   6  -1  13   1
M  END

