
     RDKit          3D

  4  3  0  0  0  0  0  0  0  0999 V2000
    0.0314   -0.0251    0.0022 N   0  0  0  0  0  4  0  0  0  0  0  0
   -0.4564    1.2674   -0.0340 O   0  0  0  0  0  1  0  0  0  0  0  0
    1.2679   -0.1685    0.0896 O   0  0  0  0  0  0  0  0  0  0  0  0
   -0.8429   -1.0738   -0.0579 O   0  0  0  0  0  1  0  0  0  0  0  0
  1  2  1  0
  1  3  2  0
  1  4  1  0
M  CHG  3   1   1   2  -1   4  -1
M  END

