
     RDKit          3D

 57 59  0  0  0  0  0  0  0  0999 V2000
    9.4087   -3.4541    2.1275 C   0  0  0  0  0  0  0  0  0  0  0  0
   10.0324   -2.4741    1.0860 C   0  0  0  0  0  0  0  0  0  0  0  0
   11.4714   -2.6854    1.0045 C   0  0  0  0  0  0  0  0  0  0  0  0
   12.3698   -1.9276    0.1206 C   0  0  0  0  0  0  0  0  0  0  0  0
   12.2379   -1.9008   -1.3125 C   0  0  0  0  0  0  0  0  0  0  0  0
   11.3728   -1.1914   -2.1994 C   0  0  0  0  0  0  0  0  0  0  0  0
    9.9291   -1.0836   -2.1738 C   0  0  0  0  0  0  0  0  0  0  0  0
    9.3556   -0.2274   -1.0997 C   0  0  0  0  0  0  0  0  0  0  0  0
   10.0995    0.4370   -0.3636 O   0  0  0  0  0  0  0  0  0  0  0  0
    7.5993   -0.1151   -0.8247 S   0  0  0  0  0  0  0  0  0  0  0  0
    7.3135    1.0658    0.5446 C   0  0  0  0  0  0  0  0  0  0  0  0
    7.7753    2.4429    0.1026 C   0  0  0  0  0  0  0  0  0  0  0  0
    7.0419    2.8668   -1.0459 N   0  0  0  0  0  0  0  0  0  0  0  0
    5.6356    3.0606   -1.0204 C   0  0  0  0  0  0  0  0  0  0  0  0
    5.0176    2.8592    0.0501 O   0  0  0  0  0  0  0  0  0  0  0  0
    4.9246    3.4975   -2.2475 C   0  0  0  0  0  0  0  0  0  0  0  0
    3.5246    3.8705   -1.8918 C   0  0  0  0  0  0  0  0  0  0  0  0
    2.8310    2.7439   -1.3085 N   0  0  0  0  0  0  0  0  0  0  0  0
    1.4918    2.9528   -0.9075 C   0  0  0  0  0  0  0  0  0  0  0  0
    0.9729    4.1071   -1.0815 O   0  0  0  0  0  0  0  0  0  0  0  0
    0.6609    1.9084   -0.2961 C   0  0  2  0  0  0  0  0  0  0  0  0
    1.3027    0.6895   -0.2082 O   0  0  0  0  0  0  0  0  0  0  0  0
   -0.6550    1.7158   -1.0004 C   0  0  0  0  0  0  0  0  0  0  0  0
   -0.3728    1.2969   -2.4366 C   0  0  0  0  0  0  0  0  0  0  0  0
   -1.3716    3.0602   -1.0013 C   0  0  0  0  0  0  0  0  0  0  0  0
   -1.4741    0.6701   -0.2809 C   0  0  0  0  0  0  0  0  0  0  0  0
   -2.6978    0.4802   -0.9069 O   0  0  0  0  0  0  0  0  0  0  0  0
   -3.7225   -0.6071   -0.1996 P   0  0  0  0  0  5  0  0  0  0  0  0
   -4.3780   -1.5204   -1.2320 O   0  0  0  0  0  0  0  0  0  0  0  0
   -2.8714   -1.6288    0.8403 O   0  0  0  0  0  0  0  0  0  0  0  0
   -3.9928   -2.4777    1.7985 P   0  0  0  0  0  5  0  0  0  0  0  0
   -3.4095   -3.8311    2.0988 O   0  0  0  0  0  0  0  0  0  0  0  0
   -5.4664   -2.6212    0.9430 O   0  0  0  0  0  0  0  0  0  0  0  0
   -6.5216   -2.3884    1.8145 C   0  0  0  0  0  0  0  0  0  0  0  0
   -7.8186   -2.5408    1.0359 C   0  0  2  0  0  0  0  0  0  0  0  0
   -7.8674   -1.6262   -0.1557 C   0  0  1  0  0  0  0  0  0  0  0  0
   -8.4843   -2.3326   -1.1826 O   0  0  0  0  0  0  0  0  0  0  0  0
   -7.6849   -2.2489   -2.6466 P   0  0  0  0  0  5  0  0  0  0  0  0
   -6.5219   -3.4731   -2.7041 O   0  0  0  0  0  1  0  0  0  0  0  0
   -8.6374   -2.4915   -3.8156 O   0  0  0  0  0  0  0  0  0  0  0  0
   -6.9016   -0.7589   -2.8633 O   0  0  0  0  0  1  0  0  0  0  0  0
   -8.9488   -0.6276    0.3246 C   0  0  1  0  0  0  0  0  0  0  0  0
   -9.5426   -0.0179   -0.7471 O   0  0  0  0  0  0  0  0  0  0  0  0
   -9.8422   -1.6367    1.0373 C   0  0  1  0  0  0  0  0  0  0  0  0
   -8.9220   -2.3202    1.8214 O   0  0  0  0  0  0  0  0  0  0  0  0
  -10.8985   -1.0499    1.7885 N   0  0  0  0  0  0  0  0  0  0  0  0
  -11.5264    0.1270    1.6636 C   0  0  0  0  0  0  0  0  0  0  0  0
  -11.3687    1.1406    0.7932 N   0  0  0  0  0  0  0  0  0  0  0  0
  -12.1527    2.2265    0.9038 C   0  0  0  0  0  0  0  0  0  0  0  0
  -13.0987    2.3348    1.8640 N   0  0  0  0  0  0  0  0  0  0  0  0
  -13.2914    1.3484    2.7540 C   0  0  0  0  0  0  0  0  0  0  0  0
  -12.4842    0.2233    2.6452 C   0  0  0  0  0  0  0  0  0  0  0  0
  -12.4386   -0.8959    3.3675 N   0  0  0  0  0  0  0  0  0  0  0  0
  -11.4749   -1.6771    2.8519 C   0  0  0  0  0  0  0  0  0  0  0  0
  -14.2667    1.4090    3.7779 N   0  0  0  0  0  0  0  0  0  0  0  0
   -4.2980   -1.5834    3.1867 O   0  0  0  0  0  1  0  0  0  0  0  0
   -4.8948    0.1680    0.7682 O   0  0  0  0  0  1  0  0  0  0  0  0
  1  2  1  0
  2  3  1  0
  3  4  1  0
  4  5  1  0
  5  6  1  0
  6  7  1  0
  7  8  1  0
  8  9  2  0
  8 10  1  0
 10 11  1  0
 11 12  1  0
 12 13  1  0
 13 14  1  0
 14 15  2  0
 14 16  1  0
 16 17  1  0
 17 18  1  0
 18 19  1  0
 19 20  2  0
 19 21  1  0
 21 22  1  6
 21 23  1  0
 23 24  1  0
 23 25  1  0
 23 26  1  0
 26 27  1  0
 27 28  1  0
 28 29  2  0
 28 30  1  0
 30 31  1  0
 31 32  2  0
 31 33  1  0
 33 34  1  0
 35 34  1  1
 35 36  1  0
 36 37  1  6
 37 38  1  0
 38 39  1  0
 38 40  2  0
 38 41  1  0
 36 42  1  0
 42 43  1  6
 42 44  1  0
 44 45  1  0
 44 46  1  1
 46 47  1  0
 47 48  2  0
 48 49  1  0
 49 50  2  0
 50 51  1  0
 51 52  2  0
 52 53  1  0
 53 54  2  0
 51 55  1  0
 31 56  1  0
 28 57  1  0
 45 35  1  0
 54 46  1  0
 52 47  1  0
M  CHG  4  39  -1  41  -1  56  -1  57  -1
M  END

