
     RDKit          3D

 11 11  0  0  0  0  0  0  0  0999 V2000
    0.3627    1.1547   -0.0998 C   0  0  0  0  0  0  0  0  0  0  0  0
   -1.0058    1.3604    0.0796 C   0  0  0  0  0  0  0  0  0  0  0  0
   -1.4307    2.5647    0.0859 O   0  0  0  0  0  0  0  0  0  0  0  0
   -1.8474    0.3222    0.2402 N   0  0  0  0  0  0  0  0  0  0  0  0
   -1.3622   -0.9321    0.2277 C   0  0  0  0  0  0  0  0  0  0  0  0
   -0.0369   -1.1481    0.0547 N   0  0  0  0  0  0  0  0  0  0  0  0
    0.8379   -0.1401   -0.1092 C   0  0  0  0  0  0  0  0  0  0  0  0
    2.2582   -0.4107   -0.2929 C   0  0  0  0  0  0  0  0  0  0  0  0
    2.7151   -1.7193   -0.2992 O   0  0  0  0  0  1  0  0  0  0  0  0
    3.1041    0.5039   -0.4489 O   0  0  0  0  0  0  0  0  0  0  0  0
   -2.1313   -1.9196    0.3763 O   0  0  0  0  0  0  0  0  0  0  0  0
  1  2  1  0
  2  3  2  0
  2  4  1  0
  4  5  1  0
  5  6  1  0
  6  7  1  0
  7  8  1  0
  8  9  1  0
  8 10  2  0
  5 11  2  0
  7  1  2  0
M  CHG  1   9  -1
M  END

