
     RDKit          3D

  9  8  0  0  0  0  0  0  0  0999 V2000
    2.4704    0.2360    0.2192 C   0  0  0  0  0  0  0  0  0  0  0  0
    3.6704   -0.3942   -0.0552 O   0  0  0  0  0  1  0  0  0  0  0  0
    2.4929    1.4511    0.5139 O   0  0  0  0  0  0  0  0  0  0  0  0
    1.1821   -0.4380    0.1837 C   0  0  0  0  0  0  0  0  0  0  0  0
    1.1838   -1.6607   -0.1154 O   0  0  0  0  0  0  0  0  0  0  0  0
   -0.0259    0.2496    0.4729 N   0  0  0  0  0  0  0  0  0  0  0  0
   -1.2690   -0.3966    0.4397 C   0  0  0  0  0  0  0  0  0  0  0  0
   -1.3126   -1.6158    0.1461 O   0  0  0  0  0  0  0  0  0  0  0  0
   -2.4795    0.2616    0.7220 N   0  0  0  0  0  0  0  0  0  0  0  0
  1  2  1  0
  1  3  2  0
  1  4  1  0
  4  5  2  0
  4  6  1  0
  6  7  1  0
  7  8  2  0
  7  9  1  0
M  CHG  1   2  -1
M  END

