
     RDKit          3D

 40 39  0  0  0  0  0  0  0  0999 V2000
   11.7727    1.2845    2.0676 C   0  0  0  0  0  0  0  0  0  0  0  0
   10.7790    0.1210    2.0536 C   0  0  0  0  0  0  0  0  0  0  0  0
    9.5135    0.6846    1.4081 C   0  0  0  0  0  0  0  0  0  0  0  0
    9.8909    1.1379    0.0181 C   0  0  0  0  0  0  0  0  0  0  0  0
    8.7491    1.7247   -0.7405 C   0  0  0  0  0  0  0  0  0  0  0  0
    7.5789    0.7783   -0.9425 C   0  0  0  0  0  0  0  0  0  0  0  0
    7.9472   -0.4418   -1.7000 C   0  0  0  0  0  0  0  0  0  0  0  0
    6.8640   -1.3951   -1.8936 C   0  0  0  0  0  0  0  0  0  0  0  0
    5.6384   -1.1433   -2.6164 C   0  0  0  0  0  0  0  0  0  0  0  0
    4.6633   -0.1154   -2.2542 C   0  0  0  0  0  0  0  0  0  0  0  0
    4.1250   -0.2956   -0.8406 C   0  0  0  0  0  0  0  0  0  0  0  0
    3.4246   -1.5983   -0.6177 C   0  0  0  0  0  0  0  0  0  0  0  0
    2.2349   -1.7403   -1.5022 C   0  0  0  0  0  0  0  0  0  0  0  0
    1.2411   -0.6837   -1.2289 C   0  0  0  0  0  0  0  0  0  0  0  0
    0.3043   -0.4256   -2.0256 O   0  0  0  0  0  0  0  0  0  0  0  0
    1.3417    0.0420   -0.0633 O   0  0  0  0  0  0  0  0  0  0  0  0
    0.5153    1.0635    0.3673 C   0  0  0  0  0  0  0  0  0  0  0  0
   -0.9300    0.7129    0.5677 C   0  0  1  0  0  0  0  0  0  0  0  0
   -1.1244   -0.3148    1.5172 O   0  0  0  0  0  0  0  0  0  0  0  0
   -1.9692   -1.3721    1.2111 C   0  0  0  0  0  0  0  0  0  0  0  0
   -2.2555   -2.5040    2.1084 C   0  0  0  0  0  0  0  0  0  0  0  0
   -3.4352   -2.3046    2.9989 C   0  0  0  0  0  0  0  0  0  0  0  0
   -4.7414   -2.0721    2.2300 C   0  0  0  0  0  0  0  0  0  0  0  0
   -5.0753   -3.2081    1.3558 C   0  0  0  0  0  0  0  0  0  0  0  0
   -6.3015   -3.1557    0.5761 C   0  0  0  0  0  0  0  0  0  0  0  0
   -6.5662   -2.1976   -0.4996 C   0  0  0  0  0  0  0  0  0  0  0  0
   -6.5615   -0.7393   -0.2041 C   0  0  0  0  0  0  0  0  0  0  0  0
   -6.9370    0.0845   -1.4532 C   0  0  0  0  0  0  0  0  0  0  0  0
   -8.2869   -0.2240   -1.9840 C   0  0  0  0  0  0  0  0  0  0  0  0
   -9.3848    0.0134   -0.9863 C   0  0  0  0  0  0  0  0  0  0  0  0
   -9.4681    1.4368   -0.5100 C   0  0  0  0  0  0  0  0  0  0  0  0
   -9.7257    2.4163   -1.6340 C   0  0  0  0  0  0  0  0  0  0  0  0
   -9.7906    3.8016   -1.0352 C   0  0  0  0  0  0  0  0  0  0  0  0
   -2.5339   -1.3573    0.0740 O   0  0  0  0  0  0  0  0  0  0  0  0
   -1.5712    1.9697    1.2072 C   0  0  0  0  0  0  0  0  0  0  0  0
   -0.9150    2.2397    2.4179 O   0  0  0  0  0  0  0  0  0  0  0  0
   -1.5545    3.5890    3.1704 P   0  0  0  0  0  5  0  0  0  0  0  0
   -3.2082    3.7695    2.9442 O   0  0  0  0  0  1  0  0  0  0  0  0
   -1.2351    3.5590    4.6642 O   0  0  0  0  0  0  0  0  0  0  0  0
   -0.7539    4.9524    2.5400 O   0  0  0  0  0  1  0  0  0  0  0  0
  1  2  1  0
  2  3  1  0
  3  4  1  0
  4  5  1  0
  5  6  1  0
  6  7  1  0
  7  8  1  0
  8  9  1  0
  9 10  1  0
 10 11  1  0
 11 12  1  0
 12 13  1  0
 13 14  1  0
 14 15  2  0
 14 16  1  0
 16 17  1  0
 18 17  1  1
 18 19  1  0
 19 20  1  0
 20 21  1  0
 21 22  1  0
 22 23  1  0
 23 24  1  0
 24 25  1  0
 25 26  1  0
 26 27  1  0
 27 28  1  0
 28 29  1  0
 29 30  1  0
 30 31  1  0
 31 32  1  0
 32 33  1  0
 20 34  2  0
 18 35  1  0
 35 36  1  0
 36 37  1  0
 37 38  1  0
 37 39  2  0
 37 40  1  0
M  CHG  2  38  -1  40  -1
M  END

