
     RDKit          3D

  9  9  0  0  0  0  0  0  0  0999 V2000
    2.6002    0.1627   -0.1184 C   0  0  0  0  0  0  0  0  0  0  0  0
    2.2082    0.4947   -1.2163 O   0  0  0  0  0  0  0  0  0  0  0  0
    1.6171   -0.2303    0.9150 C   0  0  0  0  0  0  0  0  0  0  0  0
    0.2674   -0.1299    0.3564 C   0  0  0  0  0  0  0  0  0  0  0  0
   -0.4400    1.0500    0.4580 C   0  0  0  0  0  0  0  0  0  0  0  0
   -1.7131    1.1756   -0.0580 C   0  0  0  0  0  0  0  0  0  0  0  0
   -2.3338    0.1226   -0.6993 C   0  0  0  0  0  0  0  0  0  0  0  0
   -1.6245   -1.0586   -0.8004 C   0  0  0  0  0  0  0  0  0  0  0  0
   -0.3498   -1.1956   -0.2877 C   0  0  0  0  0  0  0  0  0  0  0  0
  1  2  2  0
  1  3  1  0
  3  4  1  0
  4  5  2  0
  5  6  1  0
  6  7  2  0
  7  8  1  0
  8  9  2  0
  9  4  1  0
M  END

