
     RDKit          3D

 10  9  0  0  0  0  0  0  0  0999 V2000
    0.0510   -1.3048   -0.9012 C   0  0  0  0  0  0  0  0  0  0  0  0
   -0.2012   -0.1278   -0.0214 C   0  0  0  0  0  0  0  0  0  0  0  0
   -1.3604   -0.4385    0.8941 C   0  0  0  0  0  0  0  0  0  0  0  0
   -0.6011    1.0867   -0.8438 C   0  0  0  0  0  0  0  0  0  0  0  0
   -1.7763    0.7697   -1.5514 O   0  0  0  0  0  0  0  0  0  0  0  0
    1.0167    0.2591    0.7898 C   0  0  2  0  0  0  0  0  0  0  0  0
    2.1641    0.6140   -0.0485 C   0  0  0  0  0  0  0  0  0  0  0  0
    2.2652    1.8803   -0.6397 O   0  0  0  0  0  1  0  0  0  0  0  0
    3.1073   -0.2182   -0.2670 O   0  0  0  0  0  0  0  0  0  0  0  0
    1.3429   -0.8690    1.5708 O   0  0  0  0  0  0  0  0  0  0  0  0
  1  2  1  0
  2  3  1  0
  2  4  1  0
  4  5  1  0
  2  6  1  0
  6  7  1  0
  7  8  1  0
  7  9  2  0
  6 10  1  1
M  CHG  1   8  -1
M  END

