
     RDKit          3D

 39 38  0  0  0  0  0  0  0  0999 V2000
   11.8079   -2.6771    1.9916 C   0  0  0  0  0  0  0  0  0  0  0  0
   10.8935   -1.4915    2.2870 C   0  0  0  0  0  0  0  0  0  0  0  0
   10.5099   -0.8844    0.9463 C   0  0  0  0  0  0  0  0  0  0  0  0
    9.5873    0.2937    1.0908 C   0  0  0  0  0  0  0  0  0  0  0  0
    9.2595    0.8493   -0.2565 C   0  0  0  0  0  0  0  0  0  0  0  0
    8.5949   -0.1596   -1.1571 C   0  0  0  0  0  0  0  0  0  0  0  0
    7.3270   -0.6787   -0.5416 C   0  0  0  0  0  0  0  0  0  0  0  0
    6.3110    0.3824   -0.2792 C   0  0  0  0  0  0  0  0  0  0  0  0
    5.0502   -0.1814    0.3608 C   0  0  0  0  0  0  0  0  0  0  0  0
    4.3892   -1.2062   -0.4917 C   0  0  0  0  0  0  0  0  0  0  0  0
    3.1446   -1.8081    0.0922 C   0  0  0  0  0  0  0  0  0  0  0  0
    2.0513   -0.8236    0.3411 C   0  0  0  0  0  0  0  0  0  0  0  0
    2.2559    0.3389   -0.0243 O   0  0  0  0  0  0  0  0  0  0  0  0
    0.8823   -1.1696    0.9389 O   0  0  0  0  0  0  0  0  0  0  0  0
   -0.2214   -0.4155    1.2125 C   0  0  0  0  0  0  0  0  0  0  0  0
   -1.1865   -0.0299    0.1610 C   0  0  1  0  0  0  0  0  0  0  0  0
   -2.1987    0.8401    0.7451 O   0  0  0  0  0  0  0  0  0  0  0  0
   -3.5215    0.4091    0.7859 C   0  0  0  0  0  0  0  0  0  0  0  0
   -3.7327   -0.7343    0.2956 O   0  0  0  0  0  0  0  0  0  0  0  0
   -4.5411    1.2783    1.3738 C   0  0  0  0  0  0  0  0  0  0  0  0
   -5.9101    0.5443    1.5032 C   0  0  0  0  0  0  0  0  0  0  0  0
   -5.7108   -0.5646    2.4428 C   0  0  0  0  0  0  0  0  0  0  0  0
   -6.8425   -1.4751    2.6943 C   0  0  0  0  0  0  0  0  0  0  0  0
   -8.0564   -0.9703    3.2736 C   0  0  0  0  0  0  0  0  0  0  0  0
   -9.0096   -0.0001    2.8083 C   0  0  0  0  0  0  0  0  0  0  0  0
   -9.7488   -0.2642    1.5494 C   0  0  0  0  0  0  0  0  0  0  0  0
   -8.9249   -0.2900    0.3334 C   0  0  0  0  0  0  0  0  0  0  0  0
   -9.7811   -0.5166   -0.9151 C   0  0  0  0  0  0  0  0  0  0  0  0
  -10.4534   -1.8374   -0.8292 C   0  0  0  0  0  0  0  0  0  0  0  0
  -11.2767   -2.0210   -2.0985 C   0  0  0  0  0  0  0  0  0  0  0  0
   -0.6966    0.6565   -1.0529 C   0  0  0  0  0  0  0  0  0  0  0  0
    0.1448   -0.0599   -1.8614 O   0  0  0  0  0  0  0  0  0  0  0  0
    0.6803    0.7064   -3.2313 P   0  0  0  0  0  5  0  0  0  0  0  0
    1.1691    2.2990   -2.9073 O   0  0  0  0  0  0  0  0  0  0  0  0
    0.7055    3.1419   -3.9411 C   0  0  0  0  0  0  0  0  0  0  0  0
    1.1484    4.5407   -3.6786 C   0  0  0  0  0  0  0  0  0  0  0  0
    2.5994    4.5486   -3.6403 N   0  0  0  0  0  4  0  0  0  0  0  0
    2.0277   -0.1715   -3.8174 O   0  0  0  0  0  1  0  0  0  0  0  0
   -0.3192    0.7342   -4.3594 O   0  0  0  0  0  0  0  0  0  0  0  0
  1  2  1  0
  2  3  1  0
  3  4  1  0
  4  5  1  0
  5  6  1  0
  6  7  1  0
  7  8  1  0
  8  9  1  0
  9 10  1  0
 10 11  1  0
 11 12  1  0
 12 13  2  0
 12 14  1  0
 14 15  1  0
 16 15  1  1
 16 17  1  0
 17 18  1  0
 18 19  2  0
 18 20  1  0
 20 21  1  0
 21 22  1  0
 22 23  1  0
 23 24  1  0
 24 25  1  0
 25 26  1  0
 26 27  1  0
 27 28  1  0
 28 29  1  0
 29 30  1  0
 16 31  1  0
 31 32  1  0
 32 33  1  0
 33 34  1  0
 34 35  1  0
 35 36  1  0
 36 37  1  0
 33 38  1  0
 33 39  2  0
M  CHG  2  37   1  38  -1
M  END

