
     RDKit          3D

 47 46  0  0  0  0  0  0  0  0999 V2000
   13.1285    1.5648    5.0880 C   0  0  0  0  0  0  0  0  0  0  0  0
   13.6845    1.1194    3.8124 C   0  0  0  0  0  0  0  0  0  0  0  0
   12.7504    0.5897    2.8085 C   0  0  0  0  0  0  0  0  0  0  0  0
   12.0050   -0.6187    3.1789 C   0  0  0  0  0  0  0  0  0  0  0  0
   11.0059   -0.4909    4.2571 C   0  0  0  0  0  0  0  0  0  0  0  0
    9.9188    0.5009    3.8674 C   0  0  0  0  0  0  0  0  0  0  0  0
    9.2279   -0.0250    2.6272 C   0  0  0  0  0  0  0  0  0  0  0  0
    8.1124    0.9306    2.1993 C   0  0  0  0  0  0  0  0  0  0  0  0
    7.4934    0.3174    0.9623 C   0  0  0  0  0  0  0  0  0  0  0  0
    6.3751    1.2206    0.4458 C   0  0  0  0  0  0  0  0  0  0  0  0
    5.8195    0.5412   -0.7840 C   0  0  0  0  0  0  0  0  0  0  0  0
    4.7133    1.4367   -1.3346 C   0  0  0  0  0  0  0  0  0  0  0  0
    4.1098    0.8128   -2.5834 C   0  0  0  0  0  0  0  0  0  0  0  0
    3.0526    1.7027   -3.1450 C   0  0  0  0  0  0  0  0  0  0  0  0
    1.9383    1.9429   -2.1981 C   0  0  0  0  0  0  0  0  0  0  0  0
    1.2113    0.7079   -1.8307 C   0  0  0  0  0  0  0  0  0  0  0  0
    0.1481    0.8142   -1.1196 O   0  0  0  0  0  0  0  0  0  0  0  0
    1.5564   -0.5751   -2.1779 O   0  0  0  0  0  0  0  0  0  0  0  0
    0.8869   -1.7464   -1.8628 C   0  0  0  0  0  0  0  0  0  0  0  0
   -0.4750   -1.9125   -2.4292 C   0  0  1  0  0  0  0  0  0  0  0  0
   -1.4274   -0.9726   -2.1076 O   0  0  0  0  0  0  0  0  0  0  0  0
   -2.6496   -1.1977   -1.5096 C   0  0  0  0  0  0  0  0  0  0  0  0
   -2.9115   -2.3942   -1.2351 O   0  0  0  0  0  0  0  0  0  0  0  0
   -3.6075   -0.0774   -1.2098 C   0  0  0  0  0  0  0  0  0  0  0  0
   -4.1402    0.3542   -2.5645 C   0  0  0  0  0  0  0  0  0  0  0  0
   -5.1294    1.4661   -2.5054 C   0  0  0  0  0  0  0  0  0  0  0  0
   -6.3341    1.0592   -1.7233 C   0  0  0  0  0  0  0  0  0  0  0  0
   -7.3686    2.1605   -1.6214 C   0  0  0  0  0  0  0  0  0  0  0  0
   -6.7939    3.3610   -0.9106 C   0  0  0  0  0  0  0  0  0  0  0  0
   -6.3508    3.0175    0.4965 C   0  0  0  0  0  0  0  0  0  0  0  0
   -7.5160    2.5107    1.3273 C   0  0  0  0  0  0  0  0  0  0  0  0
   -7.0120    2.1836    2.6985 C   0  0  0  0  0  0  0  0  0  0  0  0
   -8.1345    1.6353    3.6108 C   0  0  0  0  0  0  0  0  0  0  0  0
   -9.2113    2.6292    3.7750 C   0  0  0  0  0  0  0  0  0  0  0  0
  -10.3543    2.3682    4.6574 C   0  0  0  0  0  0  0  0  0  0  0  0
  -11.2879    1.2646    4.4503 C   0  0  0  0  0  0  0  0  0  0  0  0
  -10.8039   -0.1275    4.5457 C   0  0  0  0  0  0  0  0  0  0  0  0
  -12.0262   -1.0638    4.3202 C   0  0  0  0  0  0  0  0  0  0  0  0
   -0.3431   -2.1740   -3.9206 C   0  0  0  0  0  0  0  0  0  0  0  0
   -1.5673   -2.6485   -4.4277 O   0  0  0  0  0  0  0  0  0  0  0  0
   -1.5075   -2.9639   -6.0592 P   0  0  0  0  0  5  0  0  0  0  0  0
   -0.7049   -4.4184   -6.3366 O   0  0  0  0  0  0  0  0  0  0  0  0
   -1.5270   -5.5228   -6.1242 C   0  0  0  0  0  0  0  0  0  0  0  0
   -0.6697   -6.7597   -6.4159 C   0  0  0  0  0  0  0  0  0  0  0  0
   -1.4604   -7.9453   -6.2161 N   0  0  0  0  0  4  0  0  0  0  0  0
   -0.6874   -1.7329   -6.8732 O   0  0  0  0  0  1  0  0  0  0  0  0
   -2.9232   -2.9975   -6.5884 O   0  0  0  0  0  0  0  0  0  0  0  0
  1  2  1  0
  2  3  1  0
  3  4  1  0
  4  5  1  0
  5  6  1  0
  6  7  1  0
  7  8  1  0
  8  9  1  0
  9 10  1  0
 10 11  1  0
 11 12  1  0
 12 13  1  0
 13 14  1  0
 14 15  1  0
 15 16  1  0
 16 17  2  0
 16 18  1  0
 18 19  1  0
 20 19  1  6
 20 21  1  0
 21 22  1  0
 22 23  2  0
 22 24  1  0
 24 25  1  0
 25 26  1  0
 26 27  1  0
 27 28  1  0
 28 29  1  0
 29 30  1  0
 30 31  1  0
 31 32  1  0
 32 33  1  0
 33 34  1  0
 34 35  1  0
 35 36  1  0
 36 37  1  0
 37 38  1  0
 20 39  1  0
 39 40  1  0
 40 41  1  0
 41 42  1  0
 42 43  1  0
 43 44  1  0
 44 45  1  0
 41 46  1  0
 41 47  2  0
M  CHG  2  45   1  46  -1
M  END

