
     RDKit          3D

  9  9  0  0  0  0  0  0  0  0999 V2000
   -1.7321    0.6128    0.4606 C   0  0  0  0  0  0  0  0  0  0  0  0
   -3.1234    0.4895    0.8473 N   0  0  0  0  0  4  0  0  0  0  0  0
   -0.9973   -0.7091    0.5252 C   0  0  0  0  0  0  0  0  0  0  0  0
    0.4057   -0.4434    0.1079 C   0  0  0  0  0  0  0  0  0  0  0  0
    1.3740   -0.0989    1.0212 C   0  0  0  0  0  0  0  0  0  0  0  0
    2.6863    0.1550    0.6707 C   0  0  0  0  0  0  0  0  0  0  0  0
    3.0477    0.0613   -0.6461 C   0  0  0  0  0  0  0  0  0  0  0  0
    2.1130   -0.2806   -1.5981 C   0  0  0  0  0  0  0  0  0  0  0  0
    0.8098   -0.5292   -1.2234 C   0  0  0  0  0  0  0  0  0  0  0  0
  1  2  1  0
  1  3  1  0
  3  4  1  0
  4  5  2  0
  5  6  1  0
  6  7  2  0
  7  8  1  0
  8  9  2  0
  9  4  1  0
M  CHG  1   2   1
M  END

