
     RDKit          3D

 53 52  0  0  0  0  0  0  0  0999 V2000
  -13.7683   -0.2369    5.1117 C   0  0  0  0  0  0  0  0  0  0  0  0
  -13.9841   -0.4430    3.6382 C   0  0  0  0  0  0  0  0  0  0  0  0
  -12.6588   -0.2616    2.8765 C   0  0  0  0  0  0  0  0  0  0  0  0
  -12.9967   -0.4878    1.4298 C   0  0  0  0  0  0  0  0  0  0  0  0
  -11.8383   -0.3704    0.4818 C   0  0  0  0  0  0  0  0  0  0  0  0
  -11.2541    1.0223    0.5748 C   0  0  0  0  0  0  0  0  0  0  0  0
  -10.1369    1.2314   -0.3432 C   0  0  0  0  0  0  0  0  0  0  0  0
   -8.9364    1.5430    0.0191 C   0  0  0  0  0  0  0  0  0  0  0  0
   -8.5247    1.7303    1.4209 C   0  0  0  0  0  0  0  0  0  0  0  0
   -7.4017    0.7011    1.6578 C   0  0  0  0  0  0  0  0  0  0  0  0
   -7.8734   -0.6975    1.4454 C   0  0  0  0  0  0  0  0  0  0  0  0
   -6.8199   -1.7447    1.6529 C   0  0  0  0  0  0  0  0  0  0  0  0
   -5.6376   -1.5795    0.6692 C   0  0  0  0  0  0  0  0  0  0  0  0
   -4.6156   -2.6280    0.9117 C   0  0  0  0  0  0  0  0  0  0  0  0
   -3.4791   -2.6633   -0.0118 C   0  0  0  0  0  0  0  0  0  0  0  0
   -2.5363   -1.5591   -0.1758 C   0  0  0  0  0  0  0  0  0  0  0  0
   -2.9696   -0.2519   -0.6896 C   0  0  0  0  0  0  0  0  0  0  0  0
   -1.6867    0.5965   -0.8248 C   0  0  0  0  0  0  0  0  0  0  0  0
   -1.8364    1.8232   -1.3870 O   0  0  0  0  0  0  0  0  0  0  0  0
   -0.8516    2.7520   -1.6253 C   0  0  0  0  0  0  0  0  0  0  0  0
    0.2056    2.2706   -2.5697 C   0  0  1  0  0  0  0  0  0  0  0  0
    0.9725    1.1879   -2.1258 O   0  0  0  0  0  0  0  0  0  0  0  0
    2.3645    1.1655   -2.2351 C   0  0  0  0  0  0  0  0  0  0  0  0
    2.8636    2.2008   -2.7774 O   0  0  0  0  0  0  0  0  0  0  0  0
    3.1875    0.0270   -1.7581 C   0  0  0  0  0  0  0  0  0  0  0  0
    4.6475    0.2639   -2.1538 C   0  0  0  0  0  0  0  0  0  0  0  0
    5.5666   -0.8220   -1.6975 C   0  0  0  0  0  0  0  0  0  0  0  0
    6.9636   -0.4686   -2.2038 C   0  0  0  0  0  0  0  0  0  0  0  0
    7.4896    0.8117   -1.7079 C   0  0  0  0  0  0  0  0  0  0  0  0
    7.6619    1.1043   -0.2898 C   0  0  0  0  0  0  0  0  0  0  0  0
    8.5850    0.2818    0.4968 C   0  0  0  0  0  0  0  0  0  0  0  0
    8.1837   -1.1430    0.6627 C   0  0  0  0  0  0  0  0  0  0  0  0
    9.3135   -1.7958    1.5157 C   0  0  0  0  0  0  0  0  0  0  0  0
    9.3842   -1.0604    2.7817 C   0  0  0  0  0  0  0  0  0  0  0  0
   10.4430   -0.4033    3.2236 C   0  0  0  0  0  0  0  0  0  0  0  0
   11.6997   -0.3429    2.4573 C   0  0  0  0  0  0  0  0  0  0  0  0
   12.8955   -0.9184    3.1653 C   0  0  0  0  0  0  0  0  0  0  0  0
   13.1894   -0.1906    4.4442 C   0  0  0  0  0  0  0  0  0  0  0  0
   14.4114   -0.7972    5.1158 C   0  0  0  0  0  0  0  0  0  0  0  0
   14.7011   -0.0500    6.3817 C   0  0  0  0  0  0  0  0  0  0  0  0
   13.5099   -0.1446    7.3110 C   0  0  0  0  0  0  0  0  0  0  0  0
   -0.5370    1.7513   -3.8214 C   0  0  0  0  0  0  0  0  0  0  0  0
    0.3935    1.3737   -4.7541 O   0  0  0  0  0  0  0  0  0  0  0  0
   -0.1990    0.7755   -6.1845 P   0  0  0  0  0  5  0  0  0  0  0  0
    0.5060    1.4813   -7.5444 O   0  0  0  0  0  1  0  0  0  0  0  0
    0.1336   -0.7162   -6.2502 O   0  0  0  0  0  0  0  0  0  0  0  0
   -1.8761    0.8923   -6.2018 O   0  0  0  0  0  0  0  0  0  0  0  0
   -2.3799    1.0787   -7.4828 C   0  0  0  0  0  0  0  0  0  0  0  0
   -3.8590    1.1836   -7.5598 C   0  0  1  0  0  0  0  0  0  0  0  0
   -4.1768    1.3729   -8.9251 O   0  0  0  0  0  0  0  0  0  0  0  0
   -4.4994   -0.1661   -7.2033 C   0  0  0  0  0  0  0  0  0  0  0  0
   -4.2064   -0.3803   -5.8545 O   0  0  0  0  0  0  0  0  0  0  0  0
   -0.6019    0.1663   -0.4412 O   0  0  0  0  0  0  0  0  0  0  0  0
  1  2  1  0
  2  3  1  0
  3  4  1  0
  4  5  1  0
  5  6  1  0
  6  7  1  0
  7  8  2  0
  8  9  1  0
  9 10  1  0
 10 11  1  0
 11 12  1  0
 12 13  1  0
 13 14  1  0
 14 15  1  0
 15 16  1  0
 16 17  1  0
 17 18  1  0
 18 19  1  0
 19 20  1  0
 21 20  1  1
 21 22  1  0
 22 23  1  0
 23 24  2  0
 23 25  1  0
 25 26  1  0
 26 27  1  0
 27 28  1  0
 28 29  1  0
 29 30  1  0
 30 31  1  0
 31 32  1  0
 32 33  1  0
 33 34  1  0
 34 35  2  0
 35 36  1  0
 36 37  1  0
 37 38  1  0
 38 39  1  0
 39 40  1  0
 40 41  1  0
 21 42  1  0
 42 43  1  0
 43 44  1  0
 44 45  1  0
 44 46  2  0
 44 47  1  0
 47 48  1  0
 48 49  1  0
 49 50  1  6
 49 51  1  0
 51 52  1  0
 18 53  2  0
M  CHG  1  45  -1
M  END

