
     RDKit          3D

 57 60  0  0  0  0  0  0  0  0999 V2000
    1.7668    1.4645    3.3650 C   0  0  0  0  0  0  0  0  0  0  0  0
    1.9085    0.4308    2.2354 C   0  0  0  0  0  0  0  0  0  0  0  0
    3.0983    0.8896    1.4325 C   0  0  0  0  0  0  0  0  0  0  0  0
    2.2278   -0.9301    2.8321 C   0  0  1  0  0  0  0  0  0  0  0  0
    1.1761   -1.2949    3.7068 O   0  0  0  0  0  0  0  0  0  0  0  0
    2.2987   -1.9840    1.8215 C   0  0  0  0  0  0  0  0  0  0  0  0
    1.3633   -2.8469    1.7460 O   0  0  0  0  0  0  0  0  0  0  0  0
    3.3543   -2.1300    0.8940 N   0  0  0  0  0  0  0  0  0  0  0  0
    3.3557   -3.1979   -0.0839 C   0  0  0  0  0  0  0  0  0  0  0  0
    4.5629   -3.1914   -0.9621 C   0  0  0  0  0  0  0  0  0  0  0  0
    4.7317   -1.9610   -1.7616 C   0  0  0  0  0  0  0  0  0  0  0  0
    3.8904   -1.0324   -1.7084 O   0  0  0  0  0  0  0  0  0  0  0  0
    5.8568   -1.7859   -2.6204 N   0  0  0  0  0  0  0  0  0  0  0  0
    6.0433   -0.5997   -3.4053 C   0  0  0  0  0  0  0  0  0  0  0  0
    7.3266   -0.7385   -4.1991 C   0  0  0  0  0  0  0  0  0  0  0  0
    8.7071   -0.9763   -3.0637 S   0  0  0  0  0  0  0  0  0  0  0  0
    8.8969    0.4816   -2.0619 C   0  0  0  0  0  0  0  0  0  0  0  0
    8.1593    1.4364   -2.2191 O   0  0  0  0  0  0  0  0  0  0  0  0
    9.9593    0.5317   -1.0274 C   0  0  0  0  0  0  0  0  0  0  0  0
    9.3173    1.0086    0.2174 C   0  0  0  0  0  0  0  0  0  0  0  0
    9.1936    2.3409    0.4769 C   0  0  0  0  0  0  0  0  0  0  0  0
    8.5989    2.7943    1.6279 C   0  0  0  0  0  0  0  0  0  0  0  0
    8.1202    1.8691    2.5329 C   0  0  0  0  0  0  0  0  0  0  0  0
    8.2285    0.5185    2.3042 C   0  0  0  0  0  0  0  0  0  0  0  0
    8.8378    0.0912    1.1242 C   0  0  0  0  0  0  0  0  0  0  0  0
    0.6927    0.4157    1.3782 C   0  0  0  0  0  0  0  0  0  0  0  0
   -0.3935    0.0794    2.1905 O   0  0  0  0  0  0  0  0  0  0  0  0
   -1.8411    0.0100    1.3190 P   0  0  0  0  0  5  0  0  0  0  0  0
   -2.3847    1.4112    1.2094 O   0  0  0  0  0  0  0  0  0  0  0  0
   -1.4447   -0.5837   -0.2124 O   0  0  0  0  0  0  0  0  0  0  0  0
   -2.0376    0.5019   -1.3648 P   0  0  0  0  0  5  0  0  0  0  0  0
   -1.3051    1.8106   -1.1941 O   0  0  0  0  0  0  0  0  0  0  0  0
   -3.6996    0.6538   -1.1049 O   0  0  0  0  0  0  0  0  0  0  0  0
   -4.3800    1.0664   -2.2388 C   0  0  0  0  0  0  0  0  0  0  0  0
   -5.8495    1.1531   -1.8719 C   0  0  2  0  0  0  0  0  0  0  0  0
   -6.0951    2.0166   -0.6745 C   0  0  1  0  0  0  0  0  0  0  0  0
   -6.4361    3.3171   -0.9993 O   0  0  0  0  0  0  0  0  0  0  0  0
   -5.3358    4.3820   -0.2624 P   0  0  0  0  0  5  0  0  0  0  0  0
   -5.4116    5.8818   -1.0772 O   0  0  0  0  0  1  0  0  0  0  0  0
   -3.9319    3.8299   -0.2850 O   0  0  0  0  0  0  0  0  0  0  0  0
   -5.7451    4.6903    1.3485 O   0  0  0  0  0  1  0  0  0  0  0  0
   -7.3281    1.3683   -0.0519 C   0  0  1  0  0  0  0  0  0  0  0  0
   -8.4416    2.2174   -0.1120 O   0  0  0  0  0  0  0  0  0  0  0  0
   -7.5717    0.2192   -0.9714 C   0  0  1  0  0  0  0  0  0  0  0  0
   -6.3174   -0.0909   -1.4524 O   0  0  0  0  0  0  0  0  0  0  0  0
   -8.2064   -0.9118   -0.3170 N   0  0  0  0  0  0  0  0  0  0  0  0
   -9.5420   -1.0795   -0.2624 C   0  0  0  0  0  0  0  0  0  0  0  0
  -10.6028   -0.3644   -0.7243 N   0  0  0  0  0  0  0  0  0  0  0  0
  -11.8636   -0.7695   -0.5274 C   0  0  0  0  0  0  0  0  0  0  0  0
  -12.1228   -1.9218    0.1472 N   0  0  0  0  0  0  0  0  0  0  0  0
  -11.1286   -2.6823    0.6328 C   0  0  0  0  0  0  0  0  0  0  0  0
   -9.8375   -2.2485    0.4205 C   0  0  0  0  0  0  0  0  0  0  0  0
   -8.6469   -2.7664    0.7694 N   0  0  0  0  0  0  0  0  0  0  0  0
   -7.6625   -1.9600    0.3246 C   0  0  0  0  0  0  0  0  0  0  0  0
  -11.4692   -3.8699    1.3239 N   0  0  0  0  0  0  0  0  0  0  0  0
   -1.7209   -0.0674   -2.9261 O   0  0  0  0  0  1  0  0  0  0  0  0
   -2.9737   -0.9885    2.0936 O   0  0  0  0  0  1  0  0  0  0  0  0
  1  2  1  0
  2  3  1  0
  2  4  1  0
  4  5  1  1
  4  6  1  0
  6  7  2  0
  6  8  1  0
  8  9  1  0
  9 10  1  0
 10 11  1  0
 11 12  2  0
 11 13  1  0
 13 14  1  0
 14 15  1  0
 15 16  1  0
 16 17  1  0
 17 18  2  0
 17 19  1  0
 19 20  1  0
 20 21  2  0
 21 22  1  0
 22 23  2  0
 23 24  1  0
 24 25  2  0
  2 26  1  0
 26 27  1  0
 27 28  1  0
 28 29  2  0
 28 30  1  0
 30 31  1  0
 31 32  2  0
 31 33  1  0
 33 34  1  0
 35 34  1  1
 35 36  1  0
 36 37  1  6
 37 38  1  0
 38 39  1  0
 38 40  2  0
 38 41  1  0
 36 42  1  0
 42 43  1  6
 42 44  1  0
 44 45  1  0
 44 46  1  1
 46 47  1  0
 47 48  2  0
 48 49  1  0
 49 50  2  0
 50 51  1  0
 51 52  2  0
 52 53  1  0
 53 54  2  0
 51 55  1  0
 31 56  1  0
 28 57  1  0
 25 20  1  0
 45 35  1  0
 54 46  1  0
 52 47  1  0
M  CHG  4  39  -1  41  -1  56  -1  57  -1
M  END

