
     RDKit          3D

 12 11  0  0  0  0  0  0  0  0999 V2000
    0.9231    0.4654   -0.3819 C   0  0  0  0  0  0  0  0  0  0  0  0
    1.5667    0.5966    0.8333 O   0  0  0  0  0  0  0  0  0  0  0  0
    3.1923    0.1541    0.5613 P   0  0  0  0  0  5  0  0  0  0  0  0
    3.9076   -0.4694    1.9379 O   0  0  0  0  0  1  0  0  0  0  0  0
    3.9698    1.3397    0.0171 O   0  0  0  0  0  0  0  0  0  0  0  0
    3.2292   -1.0382   -0.6488 O   0  0  0  0  0  1  0  0  0  0  0  0
   -0.5349    0.8190   -0.3248 C   0  0  0  0  0  0  0  0  0  0  0  0
   -1.3243   -0.0249    0.6265 C   0  0  2  0  0  0  0  0  0  0  0  0
   -1.2824   -1.4341    0.2925 N   0  0  0  0  0  4  0  0  0  0  0  0
   -2.7531    0.4024    0.5184 C   0  0  0  0  0  0  0  0  0  0  0  0
   -3.7130    0.0225    1.4496 O   0  0  0  0  0  1  0  0  0  0  0  0
   -3.1599    1.1351   -0.4319 O   0  0  0  0  0  0  0  0  0  0  0  0
  1  2  1  0
  2  3  1  0
  3  4  1  0
  3  5  2  0
  3  6  1  0
  1  7  1  0
  7  8  1  0
  8  9  1  6
  8 10  1  0
 10 11  1  0
 10 12  2  0
M  CHG  4   4  -1   6  -1   9   1  11  -1
M  END

