
     RDKit          3D

 12 12  0  0  0  0  0  0  0  0999 V2000
    3.1702   -0.0858    0.3541 C   0  0  0  0  0  0  0  0  0  0  0  0
    4.1995   -0.9559    0.5358 O   0  0  0  0  0  1  0  0  0  0  0  0
    3.0716    0.9519    1.0622 O   0  0  0  0  0  0  0  0  0  0  0  0
    2.1350   -0.2965   -0.6614 C   0  0  0  0  0  0  0  0  0  0  0  0
    2.1328   -1.3413   -1.3126 O   0  0  0  0  0  0  0  0  0  0  0  0
    1.0831    0.7288   -0.9198 C   0  0  0  0  0  0  0  0  0  0  0  0
   -0.2022    0.2922   -0.3435 C   0  0  0  0  0  0  0  0  0  0  0  0
   -0.3613   -0.8803    0.3711 C   0  0  0  0  0  0  0  0  0  0  0  0
   -1.5716   -1.2476    0.9245 C   0  0  0  0  0  0  0  0  0  0  0  0
   -2.6994   -0.4510    0.7909 C   0  0  0  0  0  0  0  0  0  0  0  0
   -2.5633    0.7215    0.0805 C   0  0  0  0  0  0  0  0  0  0  0  0
   -1.3474    1.0728   -0.4665 C   0  0  0  0  0  0  0  0  0  0  0  0
  1  2  1  0
  1  3  2  0
  1  4  1  0
  4  5  2  0
  4  6  1  0
  6  7  1  0
  7  8  2  0
  8  9  1  0
  9 10  2  0
 10 11  1  0
 11 12  2  0
 12  7  1  0
M  CHG  1   2  -1
M  END

