
     RDKit          3D

 15 14  0  0  0  0  0  0  0  0999 V2000
   -1.3845    0.4291    1.0363 C   0  0  0  0  0  0  0  0  0  0  0  0
   -1.4024    0.6058   -0.4463 C   0  0  0  0  0  0  0  0  0  0  0  0
   -0.7791    1.9450   -0.7667 C   0  0  0  0  0  0  0  0  0  0  0  0
   -2.8838    0.7296   -0.8473 C   0  0  0  0  0  0  0  0  0  0  0  0
   -3.4813   -0.4614   -0.4375 O   0  0  0  0  0  0  0  0  0  0  0  0
   -0.8522   -0.5092   -1.2529 C   0  0  1  0  0  0  0  0  0  0  0  0
   -0.9837   -0.1162   -2.6070 O   0  0  0  0  0  0  0  0  0  0  0  0
    0.5280   -0.9148   -0.9813 C   0  0  0  0  0  0  0  0  0  0  0  0
    1.3467   -0.8068   -1.9501 O   0  0  0  0  0  0  0  0  0  0  0  0
    1.0270   -1.4060    0.2294 N   0  0  0  0  0  0  0  0  0  0  0  0
    2.4123   -1.7711    0.3636 C   0  0  0  0  0  0  0  0  0  0  0  0
    3.3879   -0.6705    0.1233 C   0  0  0  0  0  0  0  0  0  0  0  0
    3.2350    0.4763    1.0444 C   0  0  0  0  0  0  0  0  0  0  0  0
    4.0022    1.4554    0.9131 O   0  0  0  0  0  0  0  0  0  0  0  0
    2.2694    0.4644    2.0237 O   0  0  0  0  0  1  0  0  0  0  0  0
  1  2  1  0
  2  3  1  0
  2  4  1  0
  4  5  1  0
  2  6  1  0
  6  7  1  6
  6  8  1  0
  8  9  2  0
  8 10  1  0
 10 11  1  0
 11 12  1  0
 12 13  1  0
 13 14  2  0
 13 15  1  0
M  CHG  1  15  -1
M  END

