
     RDKit          3D

  4  3  0  0  0  0  0  0  0  0999 V2000
   -1.0770    0.2243   -0.2316 C   0  0  0  0  0  0  0  0  0  0  0  0
    0.0812   -0.4302    0.4602 C   0  0  0  0  0  0  0  0  0  0  0  0
    1.3491   -0.0081   -0.1673 C   0  0  0  0  0  0  0  0  0  0  0  0
    1.3171    0.7652   -1.1050 O   0  0  0  0  0  0  0  0  0  0  0  0
  1  2  1  0
  2  3  1  0
  3  4  2  0
M  END

