
     RDKit          3D

  9  8  0  0  0  0  0  0  0  0999 V2000
   -2.3266   -0.2132    0.4039 C   0  0  0  0  0  0  0  0  0  0  0  0
   -1.2645    0.6643   -0.2223 C   0  0  0  0  0  0  0  0  0  0  0  0
    0.0560    0.0443    0.1136 C   0  0  0  0  0  0  0  0  0  0  0  0
    1.2570    0.5925   -0.3053 O   0  0  0  0  0  0  0  0  0  0  0  0
    2.7451   -0.1519    0.1029 P   0  0  0  0  0  5  0  0  0  0  0  0
    3.9786    0.8481   -0.4819 O   0  0  0  0  0  1  0  0  0  0  0  0
    2.9343   -0.2931    1.7722 O   0  0  0  0  0  1  0  0  0  0  0  0
    2.8563   -1.5344   -0.4862 O   0  0  0  0  0  0  0  0  0  0  0  0
    0.1467   -1.0175    0.8005 O   0  0  0  0  0  0  0  0  0  0  0  0
  1  2  1  0
  2  3  1  0
  3  4  1  0
  4  5  1  0
  5  6  1  0
  5  7  1  0
  5  8  2  0
  3  9  2  0
M  CHG  2   6  -1   7  -1
M  END

