
     RDKit          3D

 16 16  0  0  0  0  0  0  0  0999 V2000
   -2.7123   -0.3136   -0.4798 C   0  0  0  0  0  0  0  0  0  0  0  0
   -1.4421   -0.4111    0.2850 C   0  0  0  0  0  0  0  0  0  0  0  0
   -1.1665   -1.0277    1.4412 N   0  0  0  0  0  0  0  0  0  0  0  0
    0.1269   -0.8659    1.7780 C   0  0  0  0  0  0  0  0  0  0  0  0
    0.7540   -0.1028    0.7997 C   0  0  0  0  0  0  0  0  0  0  0  0
    2.1790    0.2996    0.7750 C   0  0  0  0  0  0  0  0  0  0  0  0
    2.9600   -0.5907   -0.1440 C   0  0  0  0  0  0  0  0  0  0  0  0
    4.3973   -0.2163   -0.2037 C   0  0  0  0  0  0  0  0  0  0  0  0
    5.2209   -0.8506   -0.9093 O   0  0  0  0  0  0  0  0  0  0  0  0
    4.8678    0.8598    0.5309 O   0  0  0  0  0  1  0  0  0  0  0  0
   -0.2269    0.1711   -0.1155 C   0  0  0  0  0  0  0  0  0  0  0  0
   -0.0965    0.9761   -1.3502 C   0  0  0  0  0  0  0  0  0  0  0  0
   -0.6530    2.3573   -1.1283 C   0  0  0  0  0  0  0  0  0  0  0  0
   -1.1085    2.6447    0.0053 O   0  0  0  0  0  0  0  0  0  0  0  0
   -0.6781    3.3025   -2.1170 O   0  0  0  0  0  1  0  0  0  0  0  0
   -3.7931   -0.9962    0.1513 N   0  0  0  0  0  4  0  0  0  0  0  0
  1  2  1  0
  2  3  1  0
  3  4  1  0
  4  5  2  0
  5  6  1  0
  6  7  1  0
  7  8  1  0
  8  9  2  0
  8 10  1  0
  5 11  1  0
 11 12  1  0
 12 13  1  0
 13 14  2  0
 13 15  1  0
  1 16  1  0
 11  2  2  0
M  CHG  3  10  -1  15  -1  16   1
M  END

