
     RDKit          3D

 44 47  0  0  0  0  0  0  0  0999 V2000
   -6.8974   -0.5960    1.5282 C   0  0  0  0  0  0  0  0  0  0  0  0
   -5.9559   -1.5867    1.2594 O   0  0  0  0  0  0  0  0  0  0  0  0
   -5.9739   -2.8189    2.3824 P   0  0  0  0  0  5  0  0  0  0  0  0
   -4.5320   -3.7217    2.2200 O   0  0  0  0  0  1  0  0  0  0  0  0
   -6.0087   -2.2669    3.7977 O   0  0  0  0  0  0  0  0  0  0  0  0
   -7.2678   -3.8678    2.2107 O   0  0  0  0  0  1  0  0  0  0  0  0
   -6.8379    0.5009    0.4755 C   0  0  1  0  0  0  0  0  0  0  0  0
   -5.5832    1.0457    0.4955 O   0  0  0  0  0  0  0  0  0  0  0  0
   -5.0372    0.9926   -0.7663 C   0  0  1  0  0  0  0  0  0  0  0  0
   -3.6022    1.0249   -0.6904 N   0  0  0  0  0  0  0  0  0  0  0  0
   -2.8097    1.0518   -1.7767 C   0  0  0  0  0  0  0  0  0  0  0  0
   -1.4278    1.0826   -1.6865 C   0  0  0  0  0  0  0  0  0  0  0  0
   -0.4052    1.1130   -2.5586 N   0  0  0  0  0  0  0  0  0  0  0  0
    0.7767    1.1346   -1.9170 C   0  0  0  0  0  0  0  0  0  0  0  0
    0.5138    1.1179   -0.6007 N   0  0  0  0  0  0  0  0  0  0  0  0
   -0.8391    1.0859   -0.4410 C   0  0  0  0  0  0  0  0  0  0  0  0
   -1.6320    1.0591    0.6258 N   0  0  0  0  0  0  0  0  0  0  0  0
   -2.9918    1.0290    0.5092 C   0  0  0  0  0  0  0  0  0  0  0  0
    1.4971    1.1315    0.4405 C   0  0  2  0  0  0  0  0  0  0  0  0
    2.6755    1.6737   -0.0598 O   0  0  0  0  0  0  0  0  0  0  0  0
    3.6951    1.3442    0.8058 C   0  0  2  0  0  0  0  0  0  0  0  0
    5.0028    1.3552    0.0401 C   0  0  0  0  0  0  0  0  0  0  0  0
    6.0795    1.0265    0.8704 O   0  0  0  0  0  0  0  0  0  0  0  0
    7.4890    1.0563   -0.0332 P   0  0  0  0  0  5  0  0  0  0  0  0
    8.5463    1.8279    0.7218 O   0  0  0  0  0  0  0  0  0  0  0  0
    7.2388    1.8386   -1.5238 O   0  0  0  0  0  1  0  0  0  0  0  0
    8.0654   -0.4929   -0.3756 O   0  0  0  0  0  0  0  0  0  0  0  0
    7.3623   -1.6561    0.6266 P   0  0  0  0  0  5  0  0  0  0  0  0
    6.7087   -0.9491    1.7829 O   0  0  0  0  0  0  0  0  0  0  0  0
    6.1981   -2.5558   -0.1938 O   0  0  0  0  0  1  0  0  0  0  0  0
    8.5911   -2.7008    1.1430 O   0  0  0  0  0  0  0  0  0  0  0  0
    9.7576   -2.8206   -0.0497 P   0  0  0  0  0  5  0  0  0  0  0  0
   11.1051   -2.2953    0.4306 O   0  0  0  0  0  0  0  0  0  0  0  0
    9.9211   -4.4548   -0.4571 O   0  0  0  0  0  1  0  0  0  0  0  0
    9.3082   -1.9331   -1.4279 O   0  0  0  0  0  1  0  0  0  0  0  0
    3.3536   -0.0370    1.3038 C   0  0  1  0  0  0  0  0  0  0  0  0
    3.4998   -0.0399    2.6950 O   0  0  0  0  0  0  0  0  0  0  0  0
    1.9146   -0.2361    0.9010 C   0  0  1  0  0  0  0  0  0  0  0  0
    1.1966   -0.5725    2.0494 O   0  0  0  0  0  0  0  0  0  0  0  0
   -3.3294    1.0495   -2.9366 N   0  0  0  0  0  0  0  0  0  0  0  0
   -5.5876   -0.2789   -1.3329 C   0  0  2  0  0  0  0  0  0  0  0  0
   -5.6304   -0.3012   -2.7182 O   0  0  0  0  0  0  0  0  0  0  0  0
   -7.0372   -0.1767   -0.8627 C   0  0  2  0  0  0  0  0  0  0  0  0
   -7.6761    0.7277   -1.6931 O   0  0  0  0  0  0  0  0  0  0  0  0
  1  2  1  0
  2  3  1  0
  3  4  1  0
  3  5  2  0
  3  6  1  0
  7  1  1  1
  7  8  1  0
  8  9  1  0
  9 10  1  1
 10 11  1  0
 11 12  1  0
 12 13  1  0
 13 14  2  0
 14 15  1  0
 15 16  1  0
 16 17  1  0
 17 18  2  0
 19 15  1  6
 19 20  1  0
 20 21  1  0
 21 22  1  6
 22 23  1  0
 23 24  1  0
 24 25  2  0
 24 26  1  0
 24 27  1  0
 27 28  1  0
 28 29  2  0
 28 30  1  0
 28 31  1  0
 31 32  1  0
 32 33  2  0
 32 34  1  0
 32 35  1  0
 21 36  1  0
 36 37  1  1
 36 38  1  0
 38 39  1  1
 11 40  2  0
  9 41  1  0
 41 42  1  6
 41 43  1  0
 43 44  1  6
 18 10  1  0
 16 12  2  0
 38 19  1  0
 43  7  1  0
M  CHG  6   4  -1   6  -1  26  -1  30  -1  34  -1  35  -1
M  END

