
     RDKit          3D

 13 14  0  0  0  0  0  0  0  0999 V2000
   -0.3455   -0.8370   -0.4485 C   0  0  0  0  0  0  0  0  0  0  0  0
   -0.6791    0.3530    0.1638 C   0  0  0  0  0  0  0  0  0  0  0  0
    0.3654    1.1411    0.6083 C   0  0  0  0  0  0  0  0  0  0  0  0
    1.6395    0.7401    0.4378 N   0  0  0  0  0  0  0  0  0  0  0  0
    1.9723   -0.4183   -0.1579 C   0  0  0  0  0  0  0  0  0  0  0  0
    3.3333   -0.8241   -0.3282 N   0  0  0  0  0  0  0  0  0  0  0  0
    0.9543   -1.1836   -0.5897 N   0  0  0  0  0  0  0  0  0  0  0  0
    0.0630    2.2295    1.1685 O   0  0  0  0  0  0  0  0  0  0  0  0
   -2.0525    0.5028    0.1998 C   0  0  0  0  0  0  0  0  0  0  0  0
   -2.7939    1.6203    0.7616 C   0  0  0  0  0  0  0  0  0  0  0  0
   -3.3723    2.5184    1.2066 N   0  0  0  0  0  0  0  0  0  0  0  0
   -2.5507   -0.6284   -0.4074 C   0  0  0  0  0  0  0  0  0  0  0  0
   -1.5193   -1.4059   -0.7824 N   0  0  0  0  0  0  0  0  0  0  0  0
  1  2  2  0
  2  3  1  0
  3  4  1  0
  4  5  1  0
  5  6  1  0
  5  7  2  0
  3  8  2  0
  2  9  1  0
  9 10  1  0
 10 11  3  0
  9 12  2  0
 12 13  1  0
  7  1  1  0
 13  1  1  0
M  END

