
     RDKit          3D

 37 38  0  0  0  0  0  0  0  0999 V2000
    7.3211   -1.1476   -0.3692 C   0  0  0  0  0  0  0  0  0  0  0  0
    8.0000   -0.5558    0.7166 O   0  0  0  0  0  0  0  0  0  0  0  0
    9.6285   -0.9596    0.7276 P   0  0  0  0  0  5  0  0  0  0  0  0
   10.4840    0.2449    0.4172 O   0  0  0  0  0  0  0  0  0  0  0  0
    9.9467   -2.1550   -0.4244 O   0  0  0  0  0  1  0  0  0  0  0  0
   10.0226   -1.6033    2.2418 O   0  0  0  0  0  1  0  0  0  0  0  0
    5.8775   -0.6947   -0.2435 C   0  0  1  0  0  0  0  0  0  0  0  0
    5.8296    0.6775   -0.3058 O   0  0  0  0  0  0  0  0  0  0  0  0
    5.0704   -1.3957   -1.3124 C   0  0  1  0  0  0  0  0  0  0  0  0
    5.2489   -2.7716   -1.0941 O   0  0  0  0  0  0  0  0  0  0  0  0
    3.6115   -1.0952   -1.1689 C   0  0  0  0  0  0  0  0  0  0  0  0
    2.8294   -1.9853   -0.8900 O   0  0  0  0  0  0  0  0  0  0  0  0
    3.0776    0.2747   -1.3592 C   0  0  0  0  0  0  0  0  0  0  0  0
    1.6598    0.2465   -1.1854 N   0  0  0  0  0  0  0  0  0  0  0  0
    1.0613    0.4932   -0.0660 C   0  0  0  0  0  0  0  0  0  0  0  0
   -0.3267    0.4317   -0.0330 N   0  0  0  0  0  0  0  0  0  0  0  0
   -1.2254    1.4973   -0.0781 C   0  0  0  0  0  0  0  0  0  0  0  0
   -2.5831    1.2761   -0.0342 N   0  0  0  0  0  0  0  0  0  0  0  0
   -3.1946    2.4546   -0.0921 C   0  0  0  0  0  0  0  0  0  0  0  0
   -2.3171    3.4186   -0.1703 N   0  0  0  0  0  0  0  0  0  0  0  0
   -1.0629    2.8570   -0.1643 C   0  0  0  0  0  0  0  0  0  0  0  0
    0.1674    3.6212   -0.2384 C   0  0  0  0  0  0  0  0  0  0  0  0
    1.2837    3.1287   -0.2339 O   0  0  0  0  0  0  0  0  0  0  0  0
    0.0734    5.0381   -0.3219 N   0  0  0  0  0  0  0  0  0  0  0  0
   -3.3024    0.0358    0.0584 C   0  0  2  0  0  0  0  0  0  0  0  0
   -4.4565    0.1448   -0.7141 O   0  0  0  0  0  0  0  0  0  0  0  0
   -5.3134   -0.8200   -0.2442 C   0  0  2  0  0  0  0  0  0  0  0  0
   -6.7545   -0.5684   -0.6311 C   0  0  0  0  0  0  0  0  0  0  0  0
   -7.5088   -1.6277   -0.0851 O   0  0  0  0  0  0  0  0  0  0  0  0
   -9.1498   -1.4706   -0.4431 P   0  0  0  0  0  5  0  0  0  0  0  0
   -9.6561   -2.8832   -1.2394 O   0  0  0  0  0  1  0  0  0  0  0  0
   -9.4774   -0.1710   -1.4454 O   0  0  0  0  0  1  0  0  0  0  0  0
   -9.9751   -1.3163    0.8178 O   0  0  0  0  0  0  0  0  0  0  0  0
   -5.2056   -0.6490    1.2727 C   0  0  1  0  0  0  0  0  0  0  0  0
   -5.5434   -1.8755    1.8354 O   0  0  0  0  0  0  0  0  0  0  0  0
   -3.7292   -0.3346    1.4288 C   0  0  1  0  0  0  0  0  0  0  0  0
   -3.1008   -1.5181    1.8015 O   0  0  0  0  0  0  0  0  0  0  0  0
  1  2  1  0
  2  3  1  0
  3  4  2  0
  3  5  1  0
  3  6  1  0
  1  7  1  0
  7  8  1  6
  7  9  1  0
  9 10  1  1
  9 11  1  0
 11 12  2  0
 11 13  1  0
 13 14  1  0
 14 15  2  0
 15 16  1  0
 16 17  1  0
 17 18  1  0
 18 19  1  0
 19 20  2  0
 20 21  1  0
 21 22  1  0
 22 23  2  0
 22 24  1  0
 25 18  1  1
 25 26  1  0
 26 27  1  0
 27 28  1  6
 28 29  1  0
 29 30  1  0
 30 31  1  0
 30 32  1  0
 30 33  2  0
 27 34  1  0
 34 35  1  1
 34 36  1  0
 36 37  1  6
 21 17  2  0
 36 25  1  0
M  CHG  4   5  -1   6  -1  31  -1  32  -1
M  END

