
     RDKit          3D

 12 12  0  0  0  0  0  0  0  0999 V2000
    0.0600    0.6854   -0.7949 C   0  0  0  0  0  0  0  0  0  0  0  0
    0.5140   -0.4320   -1.5144 O   0  0  0  0  0  0  0  0  0  0  0  0
    1.7925   -0.0233   -1.8893 N   0  0  0  0  0  0  0  0  0  0  0  0
    2.7232   -0.6232   -0.9822 C   0  0  0  0  0  0  0  0  0  0  0  0
    3.4868    0.2892   -0.1066 C   0  0  0  0  0  0  0  0  0  0  0  0
    3.4799    1.5184   -0.2380 O   0  0  0  0  0  0  0  0  0  0  0  0
    4.2370   -0.3184    0.8911 O   0  0  0  0  0  0  0  0  0  0  0  0
   -1.1791    0.5773   -0.0460 C   0  0  2  0  0  0  0  0  0  0  0  0
   -1.1461   -0.6375    0.9162 C   0  0  0  0  0  0  0  0  0  0  0  0
   -2.4874   -0.4445    1.5690 C   0  0  0  0  0  0  0  0  0  0  0  0
   -3.3073    0.1908    0.4607 C   0  0  0  0  0  0  0  0  0  0  0  0
   -2.4148    0.2805   -0.7077 N   0  0  0  0  0  0  0  0  0  0  0  0
  1  2  1  0
  2  3  1  0
  3  4  1  0
  4  5  1  0
  5  6  2  0
  5  7  1  0
  8  1  1  6
  8  9  1  0
  9 10  1  0
 10 11  1  0
 11 12  1  0
 12  8  1  0
M  END

