
     RDKit          3D

 22 22  0  0  0  0  0  0  0  0999 V2000
   -2.2658    0.5453   -0.4487 C   0  0  0  0  0  0  0  0  0  0  0  0
   -2.8220    1.0020    0.7252 O   0  0  0  0  0  0  0  0  0  0  0  0
   -4.2722    1.7790    0.3513 P   0  0  0  0  0  5  0  0  0  0  0  0
   -4.2478    2.3818   -1.0333 O   0  0  0  0  0  0  0  0  0  0  0  0
   -4.4974    3.0487    1.4539 O   0  0  0  0  0  1  0  0  0  0  0  0
   -5.5696    0.6946    0.5251 O   0  0  0  0  0  1  0  0  0  0  0  0
   -1.0493   -0.2903   -0.2830 C   0  0  2  0  0  0  0  0  0  0  0  0
   -1.3228   -1.6782    0.2686 C   0  0  1  0  0  0  0  0  0  0  0  0
   -2.0814   -2.4589   -0.5741 O   0  0  0  0  0  0  0  0  0  0  0  0
    0.1251   -2.1471    0.3707 C   0  0  1  0  0  0  0  0  0  0  0  0
    0.4687   -2.6454   -0.8880 O   0  0  0  0  0  0  0  0  0  0  0  0
    0.8446   -0.8310    0.5813 C   0  0  2  0  0  0  0  0  0  0  0  0
   -0.1506    0.1574    0.6677 O   0  0  0  0  0  0  0  0  0  0  0  0
    1.6000   -0.4846   -0.5518 O   0  0  0  0  0  0  0  0  0  0  0  0
    3.0415    0.1603    0.0126 P   0  0  0  0  0  5  0  0  0  0  0  0
    3.8081    1.1311   -1.1557 O   0  0  0  0  0  0  0  0  0  0  0  0
    4.8999    2.1065   -0.2883 P   0  0  0  0  0  5  0  0  0  0  0  0
    5.9989    2.8665   -1.3037 O   0  0  0  0  0  1  0  0  0  0  0  0
    5.5948    1.2080    0.7244 O   0  0  0  0  0  0  0  0  0  0  0  0
    3.9544    3.2182    0.5801 O   0  0  0  0  0  1  0  0  0  0  0  0
    4.0232   -1.1132    0.5035 O   0  0  0  0  0  1  0  0  0  0  0  0
    2.7186    1.0860    1.1746 O   0  0  0  0  0  0  0  0  0  0  0  0
  1  2  1  0
  2  3  1  0
  3  4  2  0
  3  5  1  0
  3  6  1  0
  7  1  1  1
  7  8  1  0
  8  9  1  6
  8 10  1  0
 10 11  1  6
 10 12  1  0
 12 13  1  0
 12 14  1  6
 14 15  1  0
 15 16  1  0
 16 17  1  0
 17 18  1  0
 17 19  2  0
 17 20  1  0
 15 21  1  0
 15 22  2  0
 13  7  1  0
M  CHG  5   5  -1   6  -1  18  -1  20  -1  21  -1
M  END

