
     RDKit          3D

 21 20  0  0  0  0  0  0  0  0999 V2000
    0.7472   -0.3234   -1.8872 C   0  0  0  0  0  0  0  0  0  0  0  0
    2.1937   -0.1973   -2.0686 C   0  0  0  0  0  0  0  0  0  0  0  0
    2.7217   -0.8177   -3.0315 O   0  0  0  0  0  0  0  0  0  0  0  0
    3.0474    0.6142   -1.1837 C   0  0  2  0  0  0  0  0  0  0  0  0
    4.2912    0.7455   -1.8702 O   0  0  0  0  0  0  0  0  0  0  0  0
    3.3269   -0.1521    0.1029 C   0  0  2  0  0  0  0  0  0  0  0  0
    2.1722   -0.3622    0.8261 O   0  0  0  0  0  0  0  0  0  0  0  0
    4.2804    0.5803    1.0165 C   0  0  1  0  0  0  0  0  0  0  0  0
    5.6757    0.7067    0.4899 C   0  0  0  0  0  0  0  0  0  0  0  0
    6.2105   -0.5013    0.0797 O   0  0  0  0  0  0  0  0  0  0  0  0
    3.7345    1.7873    1.4050 O   0  0  0  0  0  0  0  0  0  0  0  0
    0.1306    0.7076   -1.1170 N   0  0  0  0  0  4  0  0  0  0  0  0
   -0.8557    0.0682   -0.2228 C   0  0  0  0  0  0  0  0  0  0  0  0
   -2.0430   -0.2605   -1.0696 C   0  0  0  0  0  0  0  0  0  0  0  0
   -3.1726   -0.9319   -0.3234 C   0  0  0  0  0  0  0  0  0  0  0  0
   -3.6452   -0.0310    0.7609 C   0  0  0  0  0  0  0  0  0  0  0  0
   -4.7776   -0.5930    1.5763 C   0  0  2  0  0  0  0  0  0  0  0  0
   -5.9513   -0.8883    0.8303 N   0  0  0  0  0  4  0  0  0  0  0  0
   -5.0607    0.3455    2.6839 C   0  0  0  0  0  0  0  0  0  0  0  0
   -5.6992    0.0331    3.7197 O   0  0  0  0  0  0  0  0  0  0  0  0
   -4.6005    1.6456    2.5838 O   0  0  0  0  0  1  0  0  0  0  0  0
  1  2  1  0
  2  3  2  0
  2  4  1  0
  4  5  1  6
  4  6  1  0
  6  7  1  1
  6  8  1  0
  8  9  1  0
  9 10  1  0
  8 11  1  6
  1 12  1  0
 12 13  1  0
 13 14  1  0
 14 15  1  0
 15 16  1  0
 16 17  1  0
 17 18  1  6
 17 19  1  0
 19 20  2  0
 19 21  1  0
M  CHG  3  12   1  18   1  21  -1
M  END

