
     RDKit          3D

 12 12  0  0  0  0  0  0  0  0999 V2000
    3.2831    1.0158    0.0718 C   0  0  0  0  0  0  0  0  0  0  0  0
    1.8226    0.7844   -0.0764 C   0  0  0  0  0  0  0  0  0  0  0  0
    1.2445   -0.3617    0.4014 C   0  0  0  0  0  0  0  0  0  0  0  0
    1.9665   -1.3620    1.0418 O   0  0  0  0  0  0  0  0  0  0  0  0
   -0.1460   -0.5210    0.2293 C   0  0  0  0  0  0  0  0  0  0  0  0
   -0.8761    0.4463   -0.3963 C   0  0  0  0  0  0  0  0  0  0  0  0
   -2.3457    0.3256   -0.6172 C   0  0  0  0  0  0  0  0  0  0  0  0
   -2.8186    1.4847   -1.2758 O   0  0  0  0  0  0  0  0  0  0  0  0
   -0.2370    1.6074   -0.8704 C   0  0  0  0  0  0  0  0  0  0  0  0
    1.0787    1.7321   -0.6940 N   0  0  0  0  0  0  0  0  0  0  0  0
   -0.7430   -1.7479    0.7519 C   0  0  0  0  0  0  0  0  0  0  0  0
   -2.0973   -1.8214    0.5492 O   0  0  0  0  0  0  0  0  0  0  0  0
  1  2  1  0
  2  3  2  0
  3  4  1  0
  3  5  1  0
  5  6  2  0
  6  7  1  0
  7  8  1  0
  6  9  1  0
  9 10  2  0
  5 11  1  0
 11 12  1  0
 10  2  1  0
M  END

