
     RDKit          3D

  6  5  0  0  0  0  0  0  0  0999 V2000
   -1.1698   -0.0848   -0.0544 C   0  0  0  0  0  0  0  0  0  0  0  0
    0.1973    0.4391   -0.2002 C   0  0  0  0  0  0  0  0  0  0  0  0
    0.3341    1.5538   -0.7619 O   0  0  0  0  0  0  0  0  0  0  0  0
    1.3907   -0.2498    0.2629 C   0  0  0  0  0  0  0  0  0  0  0  0
    1.2624   -1.3720    0.8291 O   0  0  0  0  0  0  0  0  0  0  0  0
    2.6513    0.2954    0.0965 O   0  0  0  0  0  1  0  0  0  0  0  0
  1  2  1  0
  2  3  2  0
  2  4  1  0
  4  5  2  0
  4  6  1  0
M  CHG  1   6  -1
M  END

