
     RDKit          3D

 13 13  0  0  0  0  0  0  0  0999 V2000
    2.5823    0.1187   -0.2964 C   0  0  0  0  0  0  0  0  0  0  0  0
    3.6029   -0.1918    0.3619 O   0  0  0  0  0  0  0  0  0  0  0  0
    2.7626    0.6186   -1.5797 O   0  0  0  0  0  1  0  0  0  0  0  0
    1.2608   -0.0630    0.3243 C   0  0  1  0  0  0  0  0  0  0  0  0
    1.3932   -0.5775    1.6061 O   0  0  0  0  0  0  0  0  0  0  0  0
    0.5075    1.2468    0.4487 C   0  0  0  0  0  0  0  0  0  0  0  0
   -0.8563    0.9282    1.0165 C   0  0  1  0  0  0  0  0  0  0  0  0
   -1.4740    2.1120    1.4119 O   0  0  0  0  0  0  0  0  0  0  0  0
   -1.6646    0.1607    0.0187 C   0  0  2  0  0  0  0  0  0  0  0  0
   -2.3388   -0.9108    0.6011 O   0  0  0  0  0  0  0  0  0  0  0  0
   -0.7755   -0.3556   -1.0818 C   0  0  2  0  0  0  0  0  0  0  0  0
   -1.4519   -1.3030   -1.8654 O   0  0  0  0  0  0  0  0  0  0  0  0
    0.4291   -1.0324   -0.5085 C   0  0  0  0  0  0  0  0  0  0  0  0
  1  2  2  0
  1  3  1  0
  1  4  1  0
  4  5  1  1
  4  6  1  0
  6  7  1  0
  7  8  1  6
  7  9  1  0
  9 10  1  1
  9 11  1  0
 11 12  1  1
 11 13  1  0
 13  4  1  0
M  CHG  1   3  -1
M  END

