
     RDKit          3D

 20 22  0  0  0  0  0  0  0  0999 V2000
    5.0895    0.3086    0.0882 C   0  0  0  0  0  0  0  0  0  0  0  0
    3.6470    0.0465    0.3341 C   0  0  0  0  0  0  0  0  0  0  0  0
    2.6427    0.6256   -0.4249 C   0  0  0  0  0  0  0  0  0  0  0  0
    3.0108    1.5447   -1.5284 C   0  0  0  0  0  0  0  0  0  0  0  0
    1.3249    0.3420   -0.1463 C   0  0  0  0  0  0  0  0  0  0  0  0
    1.0406   -0.5253    0.8983 C   0  0  0  0  0  0  0  0  0  0  0  0
   -0.1699   -0.9423    1.3453 N   0  0  0  0  0  0  0  0  0  0  0  0
    0.0853   -1.7818    2.3838 C   0  0  0  0  0  0  0  0  0  0  0  0
    1.4070   -1.8886    2.5823 N   0  0  0  0  0  0  0  0  0  0  0  0
    2.0098   -1.1150    1.6685 C   0  0  0  0  0  0  0  0  0  0  0  0
    3.3378   -0.8135    1.3686 C   0  0  0  0  0  0  0  0  0  0  0  0
   -1.4441   -0.6018    0.8639 C   0  0  2  0  0  0  0  0  0  0  0  0
   -1.9485   -1.4463   -0.2839 C   0  0  2  0  0  0  0  0  0  0  0  0
   -1.1696   -1.2946   -1.4283 O   0  0  0  0  0  0  0  0  0  0  0  0
   -3.2445   -0.6778   -0.5642 C   0  0  2  0  0  0  0  0  0  0  0  0
   -3.6553   -0.8093   -1.8691 O   0  0  0  0  0  0  0  0  0  0  0  0
   -2.8462    0.7136   -0.1780 C   0  0  1  0  0  0  0  0  0  0  0  0
   -3.8994    1.2598    0.7622 C   0  0  0  0  0  0  0  0  0  0  0  0
   -3.5677    2.5773    1.1435 O   0  0  0  0  0  0  0  0  0  0  0  0
   -1.5963    0.6759    0.3807 O   0  0  0  0  0  0  0  0  0  0  0  0
  1  2  1  0
  2  3  2  0
  3  4  1  0
  3  5  1  0
  5  6  2  0
  6  7  1  0
  7  8  1  0
  8  9  2  0
  9 10  1  0
 10 11  2  0
 12  7  1  6
 12 13  1  0
 13 14  1  6
 13 15  1  0
 15 16  1  6
 15 17  1  0
 17 18  1  1
 18 19  1  0
 17 20  1  0
 11  2  1  0
 10  6  1  0
 20 12  1  0
M  END

