
     RDKit          3D

 59 63  0  0  0  0  0  0  0  0999 V2000
   -1.3557   -2.5344   -2.5913 C   0  0  0  0  0  0  0  0  0  0  0  0
   -0.8275   -2.8578   -1.2038 C   0  0  2  0  0  0  0  0  0  0  0  0
   -1.5131   -2.1193   -0.1047 C   0  0  2  0  0  0  0  0  0  0  0  0
   -1.3730   -2.8823    1.0671 O   0  0  0  0  0  0  0  0  0  0  0  0
   -2.9991   -1.9138   -0.2934 C   0  0  1  0  0  0  0  0  0  0  0  0
   -3.6535   -3.2822   -0.3997 C   0  0  0  0  0  0  0  0  0  0  0  0
   -3.6117   -1.2183    0.9132 C   0  0  1  0  0  0  0  0  0  0  0  0
   -2.6392   -0.6415    1.7175 O   0  0  0  0  0  0  0  0  0  0  0  0
   -4.6431   -0.2275    0.4119 C   0  0  1  0  0  0  0  0  0  0  0  0
   -5.8774   -1.1023    0.0882 C   0  0  0  0  0  0  0  0  0  0  0  0
   -5.1071    0.7465    1.4270 C   0  0  2  0  0  0  0  0  0  0  0  0
   -6.4065    1.2623    1.0788 O   0  0  0  0  0  0  0  0  0  0  0  0
   -7.5325    1.0879    1.8242 C   0  0  0  0  0  0  0  0  0  0  0  0
   -7.4785    0.4419    2.8806 O   0  0  0  0  0  0  0  0  0  0  0  0
   -8.8479    1.6555    1.4105 C   0  0  0  0  0  0  0  0  0  0  0  0
   -4.1928    1.8694    1.7994 C   0  0  2  0  0  0  0  0  0  0  0  0
   -4.8250    2.5008    3.0593 C   0  0  0  0  0  0  0  0  0  0  0  0
   -4.0828    2.9624    0.8027 C   0  0  1  0  0  0  0  0  0  0  0  0
   -5.4096    3.3921    0.4638 O   0  0  0  0  0  0  0  0  0  0  0  0
   -5.6367    3.3210   -0.8981 C   0  0  0  0  0  0  0  0  0  0  0  0
   -3.3991    4.1720    1.3008 C   0  0  0  0  0  0  0  0  0  0  0  0
   -2.2317    4.2918    1.8902 C   0  0  0  0  0  0  0  0  0  0  0  0
   -0.9950    4.0445    1.4042 O   0  0  0  0  0  0  0  0  0  0  0  0
   -0.4072    3.4505    0.3725 C   0  0  2  0  0  0  0  0  0  0  0  0
   -0.9216    2.1146   -0.1065 C   0  0  0  0  0  0  0  0  0  0  0  0
    1.1152    3.3513    0.5440 C   0  0  0  0  0  0  0  0  0  0  0  0
    1.6126    3.7141    1.6236 O   0  0  0  0  0  0  0  0  0  0  0  0
    1.4891    2.8155   -0.7491 C   0  0  0  0  0  0  0  0  0  0  0  0
    0.6170    3.4281   -1.6168 C   0  0  0  0  0  0  0  0  0  0  0  0
   -0.2456    4.2920   -0.8385 O   0  0  0  0  0  0  0  0  0  0  0  0
    0.5715    3.2448   -2.9564 C   0  0  0  0  0  0  0  0  0  0  0  0
   -0.3550    3.9158   -3.8837 C   0  0  0  0  0  0  0  0  0  0  0  0
    1.5298    2.3245   -3.3878 C   0  0  0  0  0  0  0  0  0  0  0  0
    1.5517    2.0715   -4.7743 O   0  0  0  0  0  1  0  0  0  0  0  0
    2.4127    1.6868   -2.5253 C   0  0  0  0  0  0  0  0  0  0  0  0
    2.4486    1.8924   -1.1671 C   0  0  0  0  0  0  0  0  0  0  0  0
    3.3346    1.1544   -0.4239 C   0  0  0  0  0  0  0  0  0  0  0  0
    3.6119    1.1433    0.9486 O   0  0  0  0  0  0  0  0  0  0  0  0
    4.2048    0.1697   -1.0624 C   0  0  0  0  0  0  0  0  0  0  0  0
    4.1881   -0.0668   -2.4101 C   0  0  0  0  0  0  0  0  0  0  0  0
    4.9466   -1.1340   -3.1055 N   0  0  0  0  0  0  0  0  0  0  0  0
    4.3815   -2.4699   -3.2828 C   0  0  0  0  0  0  0  0  0  0  0  0
    5.1141   -3.4840   -3.1696 O   0  0  0  0  0  0  0  0  0  0  0  0
    2.9719   -2.7679   -3.5954 C   0  0  0  0  0  0  0  0  0  0  0  0
    2.6469   -3.9714   -4.4891 C   0  0  0  0  0  0  0  0  0  0  0  0
    1.9116   -2.1054   -3.2030 C   0  0  0  0  0  0  0  0  0  0  0  0
    1.3766   -1.8442   -1.8791 C   0  0  0  0  0  0  0  0  0  0  0  0
    0.6509   -2.6106   -1.0982 C   0  0  0  0  0  0  0  0  0  0  0  0
    3.2695    0.7213   -3.1432 C   0  0  0  0  0  0  0  0  0  0  0  0
    2.9585    0.7967   -4.4919 O   0  0  0  0  0  0  0  0  0  0  0  0
    5.0186   -0.4380    0.0748 C   0  0  0  0  0  0  0  0  0  0  0  0
    4.8990   -0.0971    1.3006 N   0  0  0  0  0  0  0  0  0  0  0  0
    5.6951   -0.7222    2.2497 N   0  0  0  0  0  0  0  0  0  0  0  0
    5.2392   -1.7408    3.1582 C   0  0  0  0  0  0  0  0  0  0  0  0
    6.1280   -1.7760    4.3684 C   0  0  0  0  0  0  0  0  0  0  0  0
    7.5088   -2.0614    4.0537 N   0  0  0  0  0  4  0  0  0  0  0  0
    7.7676   -3.4999    3.9987 C   0  0  0  0  0  0  0  0  0  0  0  0
    7.9490   -1.4855    2.8211 C   0  0  0  0  0  0  0  0  0  0  0  0
    7.0876   -0.3326    2.3391 C   0  0  0  0  0  0  0  0  0  0  0  0
  2  1  1  6
  2  3  1  0
  3  4  1  1
  3  5  1  0
  5  6  1  1
  5  7  1  0
  7  8  1  6
  7  9  1  0
  9 10  1  1
  9 11  1  0
 11 12  1  6
 12 13  1  0
 13 14  2  0
 13 15  1  0
 11 16  1  0
 16 17  1  1
 16 18  1  0
 18 19  1  1
 19 20  1  0
 18 21  1  0
 21 22  2  0
 22 23  1  0
 23 24  1  0
 24 25  1  6
 24 26  1  0
 26 27  2  0
 26 28  1  0
 28 29  2  0
 29 30  1  0
 29 31  1  0
 31 32  1  0
 31 33  2  0
 33 34  1  0
 33 35  1  0
 35 36  2  0
 36 37  1  0
 37 38  1  0
 37 39  2  0
 39 40  1  0
 40 41  1  0
 41 42  1  0
 42 43  2  0
 42 44  1  0
 44 45  1  0
 44 46  2  0
 46 47  1  0
 47 48  2  0
 40 49  2  0
 49 50  1  0
 39 51  1  0
 51 52  2  0
 52 53  1  0
 53 54  1  0
 54 55  1  0
 55 56  1  0
 56 57  1  0
 56 58  1  0
 58 59  1  0
 30 24  1  0
 48  2  1  0
 49 35  1  0
 59 53  1  0
 36 28  1  0
M  CHG  2  34  -1  56   1
M  END

