
     RDKit          3D

 15 14  0  0  0  0  0  0  0  0999 V2000
   -3.0390    0.8839   -0.7135 C   0  0  0  0  0  0  0  0  0  0  0  0
   -2.5320   -0.0022    0.3910 C   0  0  1  0  0  0  0  0  0  0  0  0
   -1.2860   -0.7566   -0.0263 C   0  0  1  0  0  0  0  0  0  0  0  0
   -0.1581    0.1890   -0.3704 C   0  0  2  0  0  0  0  0  0  0  0  0
    0.9947   -0.5998   -0.8615 C   0  0  0  0  0  0  0  0  0  0  0  0
    2.3016   -0.5247   -0.1916 C   0  0  0  0  0  0  0  0  0  0  0  0
    2.2635    0.3393    0.8854 O   0  0  0  0  0  0  0  0  0  0  0  0
    3.8032    0.3549    1.5822 P   0  0  0  0  0  5  0  0  0  0  0  0
    3.7992    1.3974    2.9165 O   0  0  0  0  0  1  0  0  0  0  0  0
    4.0870   -1.0767    2.0399 O   0  0  0  0  0  0  0  0  0  0  0  0
    4.9508    0.8566    0.4525 O   0  0  0  0  0  1  0  0  0  0  0  0
    0.8708   -1.3312   -1.8415 O   0  0  0  0  0  0  0  0  0  0  0  0
    0.2180    0.9228    0.7235 O   0  0  0  0  0  0  0  0  0  0  0  0
   -0.9067   -1.6375    0.9664 O   0  0  0  0  0  0  0  0  0  0  0  0
   -2.3067    0.7132    1.5434 O   0  0  0  0  0  0  0  0  0  0  0  0
  2  1  1  6
  2  3  1  0
  3  4  1  0
  4  5  1  0
  5  6  1  0
  6  7  1  0
  7  8  1  0
  8  9  1  0
  8 10  2  0
  8 11  1  0
  5 12  2  0
  4 13  1  1
  3 14  1  1
  2 15  1  0
M  CHG  2   9  -1  11  -1
M  END

