
     RDKit          3D

 11 10  0  0  0  0  0  0  0  0999 V2000
   -2.0851    1.3050   -0.3453 C   0  0  0  0  0  0  0  0  0  0  0  0
   -2.0047   -0.1222    0.1272 C   0  0  2  0  0  0  0  0  0  0  0  0
   -2.8569   -0.2678    1.2330 O   0  0  0  0  0  0  0  0  0  0  0  0
   -0.5997   -0.4652    0.5642 C   0  0  2  0  0  0  0  0  0  0  0  0
   -0.1283    0.3389    1.5705 O   0  0  0  0  0  0  0  0  0  0  0  0
    0.3075   -0.4450   -0.6664 C   0  0  1  0  0  0  0  0  0  0  0  0
    0.4293    0.8285   -1.1875 O   0  0  0  0  0  0  0  0  0  0  0  0
    1.5936   -1.1003   -0.3702 C   0  0  0  0  0  0  0  0  0  0  0  0
    1.5271   -2.2361    0.1015 O   0  0  0  0  0  0  0  0  0  0  0  0
    2.9336   -0.5477   -0.5759 C   0  0  0  0  0  0  0  0  0  0  0  0
    2.9820    0.7109   -1.1024 O   0  0  0  0  0  0  0  0  0  0  0  0
  2  1  1  1
  2  3  1  0
  2  4  1  0
  4  5  1  1
  4  6  1  0
  6  7  1  1
  6  8  1  0
  8  9  2  0
  8 10  1  0
 10 11  1  0
M  END

