
     RDKit          3D

 14 13  0  0  0  0  0  0  0  0999 V2000
    1.6413   -0.8879   -0.0702 C   0  0  0  0  0  0  0  0  0  0  0  0
    2.4477   -0.1691   -0.9895 O   0  0  0  0  0  0  0  0  0  0  0  0
    3.7312    0.5631   -0.2139 P   0  0  0  0  0  5  0  0  0  0  0  0
    5.0528    0.0198   -0.2707 O   0  0  0  0  0  0  0  0  0  0  0  0
    3.2511    0.9349    1.4041 O   0  0  0  0  0  1  0  0  0  0  0  0
    3.7771    2.1501   -0.9856 O   0  0  0  0  0  1  0  0  0  0  0  0
    0.3228   -0.1336   -0.3756 C   0  0  2  0  0  0  0  0  0  0  0  0
    0.4501    1.1803    0.1265 O   0  0  0  0  0  0  0  0  0  0  0  0
   -0.8756   -0.8616    0.0584 C   0  0  2  0  0  0  0  0  0  0  0  0
   -0.7322   -2.1709   -0.6209 O   0  0  0  0  0  0  0  0  0  0  0  0
   -2.0909   -0.2543   -0.5360 C   0  0  0  0  0  0  0  0  0  0  0  0
   -2.2536   -0.4215   -1.7157 O   0  0  0  0  0  0  0  0  0  0  0  0
   -3.0125    0.4724    0.3438 C   0  0  0  0  0  0  0  0  0  0  0  0
   -4.1659    0.9781   -0.2988 O   0  0  0  0  0  0  0  0  0  0  0  0
  1  2  1  0
  2  3  1  0
  3  4  2  0
  3  5  1  0
  3  6  1  0
  1  7  1  0
  7  8  1  1
  7  9  1  0
  9 10  1  6
  9 11  1  0
 11 12  2  0
 11 13  1  0
 13 14  1  0
M  CHG  2   5  -1   6  -1
M  END

