
     RDKit          3D

 12 11  0  0  0  0  0  0  0  0999 V2000
    2.9205    0.8639    0.9230 C   0  0  0  0  0  0  0  0  0  0  0  0
    1.8778   -0.0498    0.3189 C   0  0  1  0  0  0  0  0  0  0  0  0
    0.5082    0.5356    0.4061 C   0  0  2  0  0  0  0  0  0  0  0  0
   -0.5684   -0.3905   -0.0598 C   0  0  1  0  0  0  0  0  0  0  0  0
   -1.9403    0.2981   -0.0338 C   0  0  1  0  0  0  0  0  0  0  0  0
   -2.9924   -0.5995   -0.6456 C   0  0  0  0  0  0  0  0  0  0  0  0
   -4.1918    0.0989   -0.6227 O   0  0  0  0  0  0  0  0  0  0  0  0
   -2.2710    0.6292    1.2765 O   0  0  0  0  0  0  0  0  0  0  0  0
   -0.3410   -0.6772   -1.4264 O   0  0  0  0  0  0  0  0  0  0  0  0
    0.4495    1.6913   -0.3490 O   0  0  0  0  0  0  0  0  0  0  0  0
    2.2268   -0.3677   -0.9782 O   0  0  0  0  0  0  0  0  0  0  0  0
    4.1726    0.2911    0.9570 O   0  0  0  0  0  0  0  0  0  0  0  0
  1  2  1  0
  2  3  1  0
  3  4  1  0
  4  5  1  0
  5  6  1  0
  6  7  1  0
  5  8  1  1
  4  9  1  6
  3 10  1  6
  2 11  1  6
  1 12  1  0
M  END

