
     RDKit          3D

 16 16  0  0  0  0  0  0  0  0999 V2000
   -1.9883    2.3482    0.8686 C   0  0  0  0  0  0  0  0  0  0  0  0
   -3.2342    2.2965    0.9936 O   0  0  0  0  0  0  0  0  0  0  0  0
   -1.3019    3.5338    1.1621 O   0  0  0  0  0  1  0  0  0  0  0  0
   -1.2823    1.1617    0.4169 C   0  0  0  0  0  0  0  0  0  0  0  0
   -2.0287   -0.0586    0.1192 C   0  0  0  0  0  0  0  0  0  0  0  0
   -1.2721   -1.3283    0.3098 C   0  0  1  0  0  0  0  0  0  0  0  0
   -1.8639   -2.3058   -0.5126 O   0  0  0  0  0  0  0  0  0  0  0  0
    0.1888   -1.2749    0.1467 C   0  0  2  0  0  0  0  0  0  0  0  0
    0.8523   -1.7653    1.2920 O   0  0  0  0  0  0  0  0  0  0  0  0
    0.7975    0.0425   -0.1693 C   0  0  2  0  0  0  0  0  0  0  0  0
    2.0917    0.1522    0.3547 O   0  0  0  0  0  0  0  0  0  0  0  0
    3.2440    0.3746   -0.8628 P   0  0  0  0  0  5  0  0  0  0  0  0
    3.5210   -0.9880   -1.4705 O   0  0  0  0  0  0  0  0  0  0  0  0
    2.6519    1.3879   -2.0623 O   0  0  0  0  0  1  0  0  0  0  0  0
    4.6714    0.9363   -0.1782 O   0  0  0  0  0  1  0  0  0  0  0  0
    0.0268    1.2083    0.2832 C   0  0  0  0  0  0  0  0  0  0  0  0
  1  2  2  0
  1  3  1  0
  1  4  1  0
  4  5  1  0
  5  6  1  0
  6  7  1  6
  6  8  1  0
  8  9  1  1
  8 10  1  0
 10 11  1  1
 11 12  1  0
 12 13  2  0
 12 14  1  0
 12 15  1  0
 10 16  1  0
 16  4  2  0
M  CHG  3   3  -1  14  -1  15  -1
M  END

