
     RDKit          3D

 12 12  0  0  0  0  0  0  0  0999 V2000
    0.8755    1.0770    0.4316 C   0  0  0  0  0  0  0  0  0  0  0  0
   -0.5915    1.3032    0.4861 C   0  0  1  0  0  0  0  0  0  0  0  0
   -0.9326    2.2301   -0.5173 O   0  0  0  0  0  0  0  0  0  0  0  0
   -1.3830    0.0549    0.3919 C   0  0  1  0  0  0  0  0  0  0  0  0
   -2.6558    0.3560   -0.0843 O   0  0  0  0  0  0  0  0  0  0  0  0
   -0.7729   -0.9807   -0.5255 C   0  0  1  0  0  0  0  0  0  0  0  0
    0.6409   -1.3010   -0.1939 C   0  0  0  0  0  0  0  0  0  0  0  0
    1.4276   -0.0842    0.1283 C   0  0  0  0  0  0  0  0  0  0  0  0
    2.9080   -0.1550    0.1145 C   0  0  0  0  0  0  0  0  0  0  0  0
    3.4578   -1.2364   -0.1678 O   0  0  0  0  0  0  0  0  0  0  0  0
    3.6959    0.9412    0.4050 O   0  0  0  0  0  1  0  0  0  0  0  0
   -1.5272   -2.1491   -0.3776 O   0  0  0  0  0  0  0  0  0  0  0  0
  1  2  1  0
  2  3  1  6
  2  4  1  0
  4  5  1  6
  4  6  1  0
  6  7  1  0
  7  8  1  0
  8  9  1  0
  9 10  2  0
  9 11  1  0
  6 12  1  1
  8  1  2  0
M  CHG  1  11  -1
M  END

