
     RDKit          3D

 20 19  0  0  0  0  0  0  0  0999 V2000
    1.6884   -0.7161    0.9665 C   0  0  0  0  0  0  0  0  0  0  0  0
    2.6800   -1.5155    0.2097 C   0  0  0  0  0  0  0  0  0  0  0  0
    3.4329   -0.8178   -0.8651 C   0  0  2  0  0  0  0  0  0  0  0  0
    4.3378   -1.8300   -1.4572 N   0  0  0  0  0  4  0  0  0  0  0  0
    4.3021    0.2809   -0.4240 C   0  0  0  0  0  0  0  0  0  0  0  0
    5.5039    0.0741   -0.1839 O   0  0  0  0  0  0  0  0  0  0  0  0
    3.7917    1.5476   -0.2741 O   0  0  0  0  0  1  0  0  0  0  0  0
    0.5953   -0.1327    0.1422 C   0  0  0  0  0  0  0  0  0  0  0  0
   -0.4076    0.6539    0.9557 C   0  0  2  0  0  0  0  0  0  0  0  0
   -1.4528    1.2023    0.1129 N   0  0  0  0  0  0  0  0  0  0  0  0
   -2.7964    0.8176    0.3781 C   0  0  0  0  0  0  0  0  0  0  0  0
   -3.8678    1.3666   -0.4693 C   0  0  0  0  0  0  0  0  0  0  0  0
   -5.1984    0.8277   -0.0709 C   0  0  0  0  0  0  0  0  0  0  0  0
   -5.2545   -0.6403   -0.2068 C   0  0  0  0  0  0  0  0  0  0  0  0
   -6.4011   -1.3606    0.1369 O   0  0  0  0  0  1  0  0  0  0  0  0
   -4.2640   -1.2596   -0.6361 O   0  0  0  0  0  0  0  0  0  0  0  0
   -3.0934    0.0261    1.3109 O   0  0  0  0  0  0  0  0  0  0  0  0
    0.1824    1.7952    1.6826 C   0  0  0  0  0  0  0  0  0  0  0  0
   -0.5604    2.4123    2.6706 O   0  0  0  0  0  1  0  0  0  0  0  0
    1.3272    2.2211    1.4360 O   0  0  0  0  0  0  0  0  0  0  0  0
  1  2  1  0
  2  3  1  0
  3  4  1  1
  3  5  1  0
  5  6  2  0
  5  7  1  0
  1  8  1  0
  9  8  1  6
  9 10  1  0
 10 11  1  0
 11 12  1  0
 12 13  1  0
 13 14  1  0
 14 15  1  0
 14 16  2  0
 11 17  2  0
  9 18  1  0
 18 19  1  0
 18 20  2  0
M  CHG  4   4   1   7  -1  15  -1  19  -1
M  END

