
     RDKit          3D

 20 19  0  0  0  0  0  0  0  0999 V2000
   -2.2126    0.7243   -0.5439 C   0  0  0  0  0  0  0  0  0  0  0  0
   -3.2687   -0.1608   -0.0146 C   0  0  0  0  0  0  0  0  0  0  0  0
   -4.5125    0.5632    0.3914 C   0  0  0  0  0  0  0  0  0  0  0  0
   -5.4416   -0.1728    0.8522 O   0  0  0  0  0  0  0  0  0  0  0  0
   -4.6917    1.9840    0.2875 C   0  0  0  0  0  0  0  0  0  0  0  0
   -3.8583    2.8058   -0.1456 O   0  0  0  0  0  0  0  0  0  0  0  0
   -5.9211    2.5640    0.7052 O   0  0  0  0  0  1  0  0  0  0  0  0
   -0.9287    0.1509   -1.0147 C   0  0  0  0  0  0  0  0  0  0  0  0
   -0.1738   -0.6116    0.0171 C   0  0  2  0  0  0  0  0  0  0  0  0
    1.1170   -0.9527   -0.6303 N   0  0  0  0  0  0  0  0  0  0  0  0
    2.2924   -0.5460    0.0304 C   0  0  0  0  0  0  0  0  0  0  0  0
    3.6496   -0.8249   -0.5114 C   0  0  0  0  0  0  0  0  0  0  0  0
    4.6638   -0.2196    0.4177 C   0  0  0  0  0  0  0  0  0  0  0  0
    4.4728    1.2317    0.5036 C   0  0  0  0  0  0  0  0  0  0  0  0
    3.5128    1.8499   -0.2675 O   0  0  0  0  0  1  0  0  0  0  0  0
    5.1642    1.9526    1.2682 O   0  0  0  0  0  0  0  0  0  0  0  0
    2.1911    0.0755    1.1179 O   0  0  0  0  0  0  0  0  0  0  0  0
   -0.7134   -1.9740    0.3131 C   0  0  0  0  0  0  0  0  0  0  0  0
   -0.1356   -2.5901    1.4321 O   0  0  0  0  0  1  0  0  0  0  0  0
   -1.5820   -2.5403   -0.3362 O   0  0  0  0  0  0  0  0  0  0  0  0
  1  2  1  0
  2  3  1  0
  3  4  2  0
  3  5  1  0
  5  6  2  0
  5  7  1  0
  1  8  1  0
  9  8  1  6
  9 10  1  0
 10 11  1  0
 11 12  1  0
 12 13  1  0
 13 14  1  0
 14 15  1  0
 14 16  2  0
 11 17  2  0
  9 18  1  0
 18 19  1  0
 18 20  2  0
M  CHG  3   7  -1  15  -1  19  -1
M  END

