
     RDKit          3D

  3  2  0  0  0  0  0  0  0  0999 V2000
   -1.1630   -0.2277   -0.0000 O   0  0  0  0  0  0  0  0  0  0  0  0
   -0.0047    0.4526   -0.0000 S   0  0  0  0  0  4  0  0  0  0  0  0
    1.1677   -0.2249    0.0000 O   0  0  0  0  0  0  0  0  0  0  0  0
  1  2  2  0
  2  3  2  0
M  END

