
     RDKit          3D

  4  3  0  0  0  0  0  0  0  0999 V2000
   -1.1467   -0.5449    0.3495 O   0  0  0  0  0  0  0  0  0  0  0  0
   -0.3517    0.4141   -0.7827 S   0  0  0  0  0  4  0  0  0  0  0  0
   -0.8062    1.8479   -0.7930 O   0  0  0  0  0  0  0  0  0  0  0  0
    1.3407    0.2779   -0.6456 O   0  0  0  0  0  0  0  0  0  0  0  0
  1  2  1  0
  2  3  2  0
  2  4  1  0
M  END

