
     RDKit          3D

 10  9  0  0  0  0  0  0  0  0999 V2000
   -3.2956    1.1391    0.0217 C   0  0  0  0  0  0  0  0  0  0  0  0
   -4.6477    1.4394   -0.4532 N   0  0  0  0  0  4  0  0  0  0  0  0
   -3.1564   -0.3463    0.0579 C   0  0  0  0  0  0  0  0  0  0  0  0
   -1.8176   -0.8207    0.5265 C   0  0  0  0  0  0  0  0  0  0  0  0
   -0.7297   -0.3562   -0.3130 N   0  0  0  0  0  4  0  0  0  0  0  0
    0.4923   -0.8938    0.2285 C   0  0  0  0  0  0  0  0  0  0  0  0
    1.7306   -0.2949   -0.3777 C   0  0  0  0  0  0  0  0  0  0  0  0
    2.9240   -0.9502    0.2826 C   0  0  0  0  0  0  0  0  0  0  0  0
    4.2344   -0.4095   -0.2649 C   0  0  0  0  0  0  0  0  0  0  0  0
    4.3586    1.0192   -0.0506 N   0  0  0  0  0  4  0  0  0  0  0  0
  1  2  1  0
  1  3  1  0
  3  4  1  0
  4  5  1  0
  5  6  1  0
  6  7  1  0
  7  8  1  0
  8  9  1  0
  9 10  1  0
M  CHG  3   2   1   5   1  10   1
M  END

