
     RDKit          3D

 19 18  0  0  0  0  0  0  0  0999 V2000
   -2.6113   -0.1602   -0.5163 C   0  0  0  0  0  0  0  0  0  0  0  0
   -1.3722    0.5531   -0.0006 C   0  0  0  0  0  0  0  0  0  0  0  0
   -0.4798    0.9603   -1.1291 C   0  0  0  0  0  0  0  0  0  0  0  0
    0.7665    1.6597   -0.7509 C   0  0  2  0  0  0  0  0  0  0  0  0
    1.6174    0.8810    0.1343 N   0  0  0  0  0  0  0  0  0  0  0  0
    2.9067    0.4704   -0.2649 C   0  0  0  0  0  0  0  0  0  0  0  0
    3.3396    0.7696   -1.3875 O   0  0  0  0  0  0  0  0  0  0  0  0
    3.7382   -0.3221    0.6712 C   0  0  0  0  0  0  0  0  0  0  0  0
    5.0791   -0.6637    0.0630 C   0  0  0  0  0  0  0  0  0  0  0  0
    5.8450   -1.4461    1.0441 C   0  0  0  0  0  0  0  0  0  0  0  0
    7.1127   -1.8796    0.7186 O   0  0  0  0  0  1  0  0  0  0  0  0
    5.3541   -1.7135    2.1550 O   0  0  0  0  0  0  0  0  0  0  0  0
    0.5254    2.9964   -0.1831 C   0  0  0  0  0  0  0  0  0  0  0  0
   -0.5884    3.3447    0.2493 O   0  0  0  0  0  0  0  0  0  0  0  0
    1.5789    3.9440   -0.1121 O   0  0  0  0  0  1  0  0  0  0  0  0
   -3.4784   -0.5574    0.5571 N   0  0  0  0  0  0  0  0  0  0  0  0
   -4.6813   -1.2336    0.2835 C   0  0  0  0  0  0  0  0  0  0  0  0
   -5.5139   -1.6119    1.3607 N   0  0  0  0  0  0  0  0  0  0  0  0
   -5.0162   -1.5027   -0.9307 N   0  0  0  0  0  4  0  0  0  0  0  0
  1  2  1  0
  2  3  1  0
  4  3  1  1
  4  5  1  0
  5  6  1  0
  6  7  2  0
  6  8  1  0
  8  9  1  0
  9 10  1  0
 10 11  1  0
 10 12  2  0
  4 13  1  0
 13 14  2  0
 13 15  1  0
  1 16  1  0
 16 17  1  0
 17 18  1  0
 17 19  2  0
M  CHG  3  11  -1  15  -1  19   1
M  END

