
     RDKit          3D

 16 16  0  0  0  0  0  0  0  0999 V2000
   -2.5116   -1.5948   -0.4363 C   0  0  0  0  0  0  0  0  0  0  0  0
   -3.4826   -0.6585   -0.2045 C   0  0  0  0  0  0  0  0  0  0  0  0
   -3.1565    0.6013    0.1391 C   0  0  0  0  0  0  0  0  0  0  0  0
   -1.8091    0.9754    0.2714 C   0  0  0  0  0  0  0  0  0  0  0  0
   -1.5640    2.3578    0.6368 C   0  0  0  0  0  0  0  0  0  0  0  0
   -1.9658    2.8512    1.7040 O   0  0  0  0  0  0  0  0  0  0  0  0
   -0.8762    3.1477   -0.2611 O   0  0  0  0  0  1  0  0  0  0  0  0
   -0.8205    0.0307    0.0410 C   0  0  0  0  0  0  0  0  0  0  0  0
   -1.1704   -1.2886   -0.3283 C   0  0  0  0  0  0  0  0  0  0  0  0
    0.5812    0.3947    0.1626 C   0  0  0  0  0  0  0  0  0  0  0  0
    0.9053    1.5433    0.4369 O   0  0  0  0  0  0  0  0  0  0  0  0
    1.6788   -0.6100   -0.0462 C   0  0  0  0  0  0  0  0  0  0  0  0
    3.0036    0.1517    0.0432 C   0  0  0  0  0  0  0  0  0  0  0  0
    4.1654   -0.7088   -0.1471 C   0  0  0  0  0  0  0  0  0  0  0  0
    5.3100   -0.1328   -0.1879 O   0  0  0  0  0  0  0  0  0  0  0  0
    4.1898   -2.0739   -0.3032 O   0  0  0  0  0  1  0  0  0  0  0  0
  1  2  2  0
  2  3  1  0
  3  4  2  0
  4  5  1  0
  5  6  2  0
  5  7  1  0
  4  8  1  0
  8  9  2  0
  8 10  1  0
 10 11  2  0
 10 12  1  0
 12 13  1  0
 13 14  1  0
 14 15  2  0
 14 16  1  0
  9  1  1  0
M  CHG  2   7  -1  16  -1
M  END

