
     RDKit          3D

 17 16  0  0  0  0  0  0  0  0999 V2000
   -1.3172    0.1711    0.4013 C   0  0  0  0  0  0  0  0  0  0  0  0
   -2.6102    0.3745   -0.2864 C   0  0  0  0  0  0  0  0  0  0  0  0
   -3.7715   -0.1434    0.5217 C   0  0  0  0  0  0  0  0  0  0  0  0
   -5.0263    0.0910   -0.2210 C   0  0  0  0  0  0  0  0  0  0  0  0
   -6.1563   -0.2417    0.2171 O   0  0  0  0  0  0  0  0  0  0  0  0
   -4.9761    0.7025   -1.4550 O   0  0  0  0  0  1  0  0  0  0  0  0
   -0.1020    0.5837   -0.1815 N   0  0  0  0  0  0  0  0  0  0  0  0
    1.1593    0.3717    0.5171 C   0  0  1  0  0  0  0  0  0  0  0  0
    2.0736   -0.4994   -0.2946 C   0  0  0  0  0  0  0  0  0  0  0  0
    3.3842   -0.7269    0.4190 C   0  0  0  0  0  0  0  0  0  0  0  0
    4.2955   -1.5909   -0.3733 C   0  0  0  0  0  0  0  0  0  0  0  0
    3.9179   -2.0173   -1.4767 O   0  0  0  0  0  0  0  0  0  0  0  0
    5.5497   -1.9204    0.1049 O   0  0  0  0  0  1  0  0  0  0  0  0
    1.7967    1.6673    0.8605 C   0  0  0  0  0  0  0  0  0  0  0  0
    2.6854    1.8285    1.7096 O   0  0  0  0  0  0  0  0  0  0  0  0
    1.3537    2.8038    0.1632 O   0  0  0  0  0  1  0  0  0  0  0  0
   -1.3238   -0.3832    1.5280 O   0  0  0  0  0  0  0  0  0  0  0  0
  1  2  1  0
  2  3  1  0
  3  4  1  0
  4  5  2  0
  4  6  1  0
  1  7  1  0
  7  8  1  0
  8  9  1  6
  9 10  1  0
 10 11  1  0
 11 12  2  0
 11 13  1  0
  8 14  1  0
 14 15  2  0
 14 16  1  0
  1 17  2  0
M  CHG  3   6  -1  13  -1  16  -1
M  END

