
     RDKit          3D

 16 15  0  0  0  0  0  0  0  0999 V2000
   -3.7375   -0.9757    0.3743 C   0  0  0  0  0  0  0  0  0  0  0  0
   -2.5657   -0.7201   -0.5303 C   0  0  0  0  0  0  0  0  0  0  0  0
   -1.4202   -0.0576    0.1603 C   0  0  0  0  0  0  0  0  0  0  0  0
   -0.2578    0.1832   -0.7886 C   0  0  1  0  0  0  0  0  0  0  0  0
   -0.6275    1.0505   -1.9159 C   0  0  0  0  0  0  0  0  0  0  0  0
   -1.7769    1.8077   -1.8527 O   0  0  0  0  0  1  0  0  0  0  0  0
    0.0866    1.1155   -2.9386 O   0  0  0  0  0  0  0  0  0  0  0  0
    0.8306    0.7257   -0.0001 N   0  0  0  0  0  0  0  0  0  0  0  0
    2.0411    0.0396    0.2275 C   0  0  0  0  0  0  0  0  0  0  0  0
    2.1695   -1.1081   -0.2896 O   0  0  0  0  0  0  0  0  0  0  0  0
    3.1049    0.6428    1.0349 C   0  0  0  0  0  0  0  0  0  0  0  0
    4.3182   -0.2136    1.1781 C   0  0  0  0  0  0  0  0  0  0  0  0
    4.9609   -0.5449   -0.1009 C   0  0  0  0  0  0  0  0  0  0  0  0
    6.0996   -1.3320   -0.1482 O   0  0  0  0  0  1  0  0  0  0  0  0
    4.4941   -0.1225   -1.1873 O   0  0  0  0  0  0  0  0  0  0  0  0
   -4.2776    0.2271    0.9496 N   0  0  0  0  0  4  0  0  0  0  0  0
  1  2  1  0
  2  3  1  0
  4  3  1  1
  4  5  1  0
  5  6  1  0
  5  7  2  0
  4  8  1  0
  8  9  1  0
  9 10  2  0
  9 11  1  0
 11 12  1  0
 12 13  1  0
 13 14  1  0
 13 15  2  0
  1 16  1  0
M  CHG  3   6  -1  14  -1  16   1
M  END

