
     RDKit          3D

 23 24  0  0  0  0  0  0  0  0999 V2000
    3.2490   -1.9354   -1.3400 C   0  0  0  0  0  0  0  0  0  0  0  0
    2.9112   -2.1701   -2.6802 O   0  0  0  0  0  0  0  0  0  0  0  0
    2.7670   -0.5860   -0.8782 C   0  0  1  0  0  0  0  0  0  0  0  0
    1.4123   -0.4178   -0.9588 O   0  0  0  0  0  0  0  0  0  0  0  0
    0.9155    0.4760    0.0161 C   0  0  1  0  0  0  0  0  0  0  0  0
    1.9089    1.5901    0.2736 C   0  0  2  0  0  0  0  0  0  0  0  0
    2.1114    2.2553   -0.9239 O   0  0  0  0  0  0  0  0  0  0  0  0
    3.2134    1.0842    0.8139 C   0  0  1  0  0  0  0  0  0  0  0  0
    3.4164    1.3855    2.1397 O   0  0  0  0  0  0  0  0  0  0  0  0
    3.2641   -0.4102    0.5526 C   0  0  2  0  0  0  0  0  0  0  0  0
    4.5820   -0.8118    0.6780 O   0  0  0  0  0  0  0  0  0  0  0  0
   -0.2461    1.0196   -0.4664 O   0  0  0  0  0  0  0  0  0  0  0  0
   -1.3660    0.7370    0.3039 C   0  0  2  0  0  0  0  0  0  0  0  0
   -1.2251    1.3481    1.6956 C   0  0  0  0  0  0  0  0  0  0  0  0
   -2.3434    1.0664    2.4615 O   0  0  0  0  0  0  0  0  0  0  0  0
   -1.5243   -0.6272    0.3454 O   0  0  0  0  0  0  0  0  0  0  0  0
   -2.8410   -0.9395    0.1408 C   0  0  2  0  0  0  0  0  0  0  0  0
   -3.0283   -2.2340   -0.6361 C   0  0  0  0  0  0  0  0  0  0  0  0
   -4.3614   -2.5061   -0.8169 O   0  0  0  0  0  0  0  0  0  0  0  0
   -3.4558    0.1606   -0.6755 C   0  0  1  0  0  0  0  0  0  0  0  0
   -4.7956    0.2997   -0.3259 O   0  0  0  0  0  0  0  0  0  0  0  0
   -2.6212    1.3367   -0.2867 C   0  0  2  0  0  0  0  0  0  0  0  0
   -2.3393    2.1805   -1.3578 O   0  0  0  0  0  0  0  0  0  0  0  0
  1  2  1  0
  3  1  1  1
  3  4  1  0
  4  5  1  0
  5  6  1  0
  6  7  1  6
  6  8  1  0
  8  9  1  1
  8 10  1  0
 10 11  1  6
  5 12  1  6
 12 13  1  0
 13 14  1  1
 14 15  1  0
 13 16  1  0
 16 17  1  0
 17 18  1  6
 18 19  1  0
 17 20  1  0
 20 21  1  1
 20 22  1  0
 22 23  1  6
 10  3  1  0
 22 13  1  0
M  END

