
     RDKit          3D

  7  6  0  0  0  0  0  0  0  0999 V2000
    0.5280    0.3315   -0.0746 C   0  0  0  0  0  0  0  0  0  0  0  0
    1.8594    0.2066    0.5740 C   0  0  0  0  0  0  0  0  0  0  0  0
    2.4724   -0.8535    0.5687 O   0  0  0  0  0  0  0  0  0  0  0  0
   -0.4915   -0.2503    0.8547 C   0  0  0  0  0  0  0  0  0  0  0  0
   -1.8690   -0.1882    0.3244 C   0  0  0  0  0  0  0  0  0  0  0  0
   -2.7845   -0.6594    1.0512 O   0  0  0  0  0  0  0  0  0  0  0  0
   -2.2178    0.3400   -0.8893 O   0  0  0  0  0  1  0  0  0  0  0  0
  1  2  1  0
  2  3  2  0
  1  4  1  0
  4  5  1  0
  5  6  2  0
  5  7  1  0
M  CHG  1   7  -1
M  END

