
     RDKit          3D

 63 65  0  0  0  0  0  0  0  0999 V2000
   17.7668   -0.7760    1.5903 C   0  0  0  0  0  0  0  0  0  0  0  0
   16.2154   -0.8517    1.6478 C   0  0  0  0  0  0  0  0  0  0  0  0
   15.7574    0.2388    2.5500 C   0  0  0  0  0  0  0  0  0  0  0  0
   14.3241    0.4158    2.8230 C   0  0  0  0  0  0  0  0  0  0  0  0
   13.3893    0.8379    1.7679 C   0  0  0  0  0  0  0  0  0  0  0  0
   13.2226    0.0256    0.5413 C   0  0  0  0  0  0  0  0  0  0  0  0
   12.1360    0.6334   -0.3464 C   0  0  0  0  0  0  0  0  0  0  0  0
   10.7863    0.7010    0.2674 C   0  0  0  0  0  0  0  0  0  0  0  0
    9.8341    1.3027   -0.7631 C   0  0  0  0  0  0  0  0  0  0  0  0
    8.4331    1.4303   -0.2688 C   0  0  0  0  0  0  0  0  0  0  0  0
    7.7886    0.1420    0.1342 C   0  0  0  0  0  0  0  0  0  0  0  0
    6.3737    0.4160    0.5991 C   0  0  0  0  0  0  0  0  0  0  0  0
    5.6663   -0.8326    1.0199 C   0  0  0  0  0  0  0  0  0  0  0  0
    5.5772   -1.8603   -0.0260 C   0  0  0  0  0  0  0  0  0  0  0  0
    5.8075   -3.0642    0.3948 O   0  0  0  0  0  0  0  0  0  0  0  0
    5.2153   -1.6829   -1.6917 S   0  0  0  0  0  0  0  0  0  0  0  0
    4.6415   -0.2584   -2.4754 C   0  0  0  0  0  0  0  0  0  0  0  0
    3.2472    0.1764   -2.2275 C   0  0  0  0  0  0  0  0  0  0  0  0
    2.8659    0.5451   -0.9182 N   0  0  0  0  0  0  0  0  0  0  0  0
    1.4893    0.9322   -0.6739 C   0  0  0  0  0  0  0  0  0  0  0  0
    0.6614    0.9323   -1.6256 O   0  0  0  0  0  0  0  0  0  0  0  0
    1.0441    1.3230    0.6648 C   0  0  0  0  0  0  0  0  0  0  0  0
   -0.4618    1.5719    0.6444 C   0  0  0  0  0  0  0  0  0  0  0  0
   -1.1345    0.3545    0.2507 N   0  0  0  0  0  0  0  0  0  0  0  0
   -2.5600    0.2492    0.1305 C   0  0  0  0  0  0  0  0  0  0  0  0
   -3.2461    1.2518    0.3733 O   0  0  0  0  0  0  0  0  0  0  0  0
   -3.1576   -1.0228   -0.2697 C   0  0  2  0  0  0  0  0  0  0  0  0
   -2.1461   -2.0350   -0.3003 O   0  0  0  0  0  0  0  0  0  0  0  0
   -3.7993   -1.0787   -1.6160 C   0  0  0  0  0  0  0  0  0  0  0  0
   -4.3418   -2.5106   -1.8249 C   0  0  0  0  0  0  0  0  0  0  0  0
   -2.7721   -0.8332   -2.7177 C   0  0  0  0  0  0  0  0  0  0  0  0
   -4.9168   -0.1065   -1.8303 C   0  0  0  0  0  0  0  0  0  0  0  0
   -4.5918    1.2201   -1.7300 O   0  0  0  0  0  0  0  0  0  0  0  0
   -5.9260    2.2296   -1.9875 P   0  0  0  0  0  5  0  0  0  0  0  0
   -6.8914    2.1816   -0.8254 O   0  0  0  0  0  0  0  0  0  0  0  0
   -6.6583    1.9245   -3.4623 O   0  0  0  0  0  0  0  0  0  0  0  0
   -8.0089    0.9508   -3.2333 P   0  0  0  0  0  5  0  0  0  0  0  0
   -7.8382   -0.3473   -3.9923 O   0  0  0  0  0  0  0  0  0  0  0  0
   -8.2747    0.6882   -1.5867 O   0  0  0  0  0  0  0  0  0  0  0  0
   -9.1987   -0.3320   -1.4262 C   0  0  0  0  0  0  0  0  0  0  0  0
   -9.4583   -0.5921    0.0416 C   0  0  2  0  0  0  0  0  0  0  0  0
  -10.6058   -1.5658    0.2334 C   0  0  1  0  0  0  0  0  0  0  0  0
  -10.1848   -2.8853    0.0783 O   0  0  0  0  0  0  0  0  0  0  0  0
  -11.0731   -3.5430   -1.2116 P   0  0  0  0  0  5  0  0  0  0  0  0
  -12.1710   -4.7109   -0.6676 O   0  0  0  0  0  1  0  0  0  0  0  0
  -11.8897   -2.4734   -1.9163 O   0  0  0  0  0  0  0  0  0  0  0  0
  -10.0389   -4.2257   -2.3639 O   0  0  0  0  0  1  0  0  0  0  0  0
  -11.0232   -1.2491    1.6535 C   0  0  1  0  0  0  0  0  0  0  0  0
  -10.2861   -2.1010    2.4975 O   0  0  0  0  0  0  0  0  0  0  0  0
  -10.6310    0.1836    1.7933 C   0  0  1  0  0  0  0  0  0  0  0  0
   -9.9552    0.5548    0.6489 O   0  0  0  0  0  0  0  0  0  0  0  0
  -11.7406    1.0685    2.0904 N   0  0  0  0  0  0  0  0  0  0  0  0
  -12.9866    1.0189    1.5425 C   0  0  0  0  0  0  0  0  0  0  0  0
  -13.4853    0.1829    0.6348 N   0  0  0  0  0  0  0  0  0  0  0  0
  -14.7627    0.3401    0.2476 C   0  0  0  0  0  0  0  0  0  0  0  0
  -15.5530    1.3152    0.7486 N   0  0  0  0  0  0  0  0  0  0  0  0
  -15.0854    2.1844    1.6723 C   0  0  0  0  0  0  0  0  0  0  0  0
  -13.7715    2.0221    2.0696 C   0  0  0  0  0  0  0  0  0  0  0  0
  -12.9924    2.6846    2.9445 N   0  0  0  0  0  0  0  0  0  0  0  0
  -11.7669    2.1017    2.9510 C   0  0  0  0  0  0  0  0  0  0  0  0
  -15.9024    3.2050    2.1990 N   0  0  0  0  0  0  0  0  0  0  0  0
   -9.4107    1.7336   -3.8259 O   0  0  0  0  0  1  0  0  0  0  0  0
   -5.3109    3.8219   -2.0483 O   0  0  0  0  0  1  0  0  0  0  0  0
  1  2  1  0
  2  3  1  0
  3  4  1  0
  4  5  1  0
  5  6  1  0
  6  7  1  0
  7  8  1  0
  8  9  1  0
  9 10  1  0
 10 11  1  0
 11 12  1  0
 12 13  1  0
 13 14  1  0
 14 15  2  0
 14 16  1  0
 16 17  1  0
 17 18  1  0
 18 19  1  0
 19 20  1  0
 20 21  2  0
 20 22  1  0
 22 23  1  0
 23 24  1  0
 24 25  1  0
 25 26  2  0
 25 27  1  0
 27 28  1  6
 27 29  1  0
 29 30  1  0
 29 31  1  0
 29 32  1  0
 32 33  1  0
 33 34  1  0
 34 35  2  0
 34 36  1  0
 36 37  1  0
 37 38  2  0
 37 39  1  0
 39 40  1  0
 41 40  1  6
 41 42  1  0
 42 43  1  1
 43 44  1  0
 44 45  1  0
 44 46  2  0
 44 47  1  0
 42 48  1  0
 48 49  1  1
 48 50  1  0
 50 51  1  0
 50 52  1  6
 52 53  1  0
 53 54  2  0
 54 55  1  0
 55 56  2  0
 56 57  1  0
 57 58  2  0
 58 59  1  0
 59 60  2  0
 57 61  1  0
 37 62  1  0
 34 63  1  0
 51 41  1  0
 60 52  1  0
 58 53  1  0
M  CHG  4  45  -1  47  -1  62  -1  63  -1
M  END

