
     RDKit          3D

 32 34  0  0  0  0  0  0  0  0999 V2000
    2.2768    0.4686    0.4575 C   0  0  0  0  0  0  0  0  0  0  0  0
    1.5311   -0.1265    1.5225 N   0  0  0  0  0  0  0  0  0  0  0  0
    0.1251   -0.3220    1.3541 C   0  0  0  0  0  0  0  0  0  0  0  0
   -0.6450   -0.8921    2.3471 C   0  0  0  0  0  0  0  0  0  0  0  0
   -2.0046   -1.0881    2.2000 C   0  0  0  0  0  0  0  0  0  0  0  0
   -2.6475   -0.7145    1.0375 C   0  0  0  0  0  0  0  0  0  0  0  0
   -4.0966   -0.9216    0.8758 C   0  0  0  0  0  0  0  0  0  0  0  0
   -4.7479   -1.4544    1.8444 O   0  0  0  0  0  0  0  0  0  0  0  0
   -4.8149   -0.5741   -0.2701 N   0  0  0  0  0  0  0  0  0  0  0  0
   -6.2328   -0.8089   -0.3522 C   0  0  2  0  0  0  0  0  0  0  0  0
   -6.4808   -1.7800   -1.4604 C   0  0  0  0  0  0  0  0  0  0  0  0
   -7.5676   -2.3882   -1.5629 O   0  0  0  0  0  0  0  0  0  0  0  0
   -5.4920   -2.0216   -2.4032 O   0  0  0  0  0  1  0  0  0  0  0  0
   -6.9385    0.4804   -0.6317 C   0  0  0  0  0  0  0  0  0  0  0  0
   -8.4280    0.3146   -0.7314 C   0  0  0  0  0  0  0  0  0  0  0  0
   -9.0249    1.6624   -1.0115 C   0  0  0  0  0  0  0  0  0  0  0  0
  -10.3947    1.8321   -1.1577 O   0  0  0  0  0  1  0  0  0  0  0  0
   -8.3076    2.6892   -1.1245 O   0  0  0  0  0  0  0  0  0  0  0  0
   -1.8946   -0.1459    0.0402 C   0  0  0  0  0  0  0  0  0  0  0  0
   -0.5133    0.0517    0.1931 C   0  0  0  0  0  0  0  0  0  0  0  0
    3.7492    0.5709    0.8712 C   0  0  1  0  0  0  0  0  0  0  0  0
    4.2236   -0.8360    1.1425 C   0  0  0  0  0  0  0  0  0  0  0  0
    5.6334   -1.0134    0.9309 N   0  0  0  0  0  0  0  0  0  0  0  0
    6.3956   -0.2137    0.0527 C   0  0  0  0  0  0  0  0  0  0  0  0
    7.6888   -0.4794   -0.2625 N   0  0  0  0  0  0  0  0  0  0  0  0
    8.3971    0.2940   -1.1006 C   0  0  0  0  0  0  0  0  0  0  0  0
    9.7572    0.0132   -1.4313 N   0  0  0  0  0  0  0  0  0  0  0  0
    7.8126    1.3799   -1.6575 N   0  0  0  0  0  0  0  0  0  0  0  0
    6.5310    1.6713   -1.3654 C   0  0  0  0  0  0  0  0  0  0  0  0
    5.9644    2.6811   -1.8742 O   0  0  0  0  0  0  0  0  0  0  0  0
    5.7886    0.8858   -0.5052 C   0  0  0  0  0  0  0  0  0  0  0  0
    4.4427    1.2089   -0.2109 N   0  0  0  0  0  0  0  0  0  0  0  0
  1  2  1  0
  2  3  1  0
  3  4  2  0
  4  5  1  0
  5  6  2  0
  6  7  1  0
  7  8  2  0
  7  9  1  0
  9 10  1  0
 10 11  1  0
 11 12  2  0
 11 13  1  0
 10 14  1  6
 14 15  1  0
 15 16  1  0
 16 17  1  0
 16 18  2  0
  6 19  1  0
 19 20  2  0
 21  1  1  6
 21 22  1  0
 22 23  1  0
 23 24  1  0
 24 25  1  0
 25 26  2  0
 26 27  1  0
 26 28  1  0
 28 29  1  0
 29 30  2  0
 29 31  1  0
 31 32  1  0
 20  3  1  0
 32 21  1  0
 31 24  2  0
M  CHG  2  13  -1  17  -1
M  END

