
     RDKit          3D

 18 19  0  0  0  0  0  0  0  0999 V2000
   -0.5709   -1.4013   -0.8383 C   0  0  0  0  0  0  0  0  0  0  0  0
    0.5685   -1.5798    0.0225 N   0  0  0  0  0  0  0  0  0  0  0  0
    1.6758   -0.7091   -0.1520 C   0  0  0  0  0  0  0  0  0  0  0  0
    2.8791   -1.0161    0.3491 N   0  0  0  0  0  0  0  0  0  0  0  0
    3.9399   -0.1865    0.1844 C   0  0  0  0  0  0  0  0  0  0  0  0
    5.2118   -0.4846    0.6995 N   0  0  0  0  0  0  0  0  0  0  0  0
    3.7451    0.9571   -0.4995 N   0  0  0  0  0  0  0  0  0  0  0  0
    2.5764    1.3055   -1.0138 C   0  0  0  0  0  0  0  0  0  0  0  0
    2.3930    2.3713   -1.6517 O   0  0  0  0  0  0  0  0  0  0  0  0
    1.4900    0.4674   -0.8515 C   0  0  0  0  0  0  0  0  0  0  0  0
    0.2185    0.7888   -1.3794 N   0  0  0  0  0  0  0  0  0  0  0  0
   -0.9396    0.0551   -0.9452 C   0  0  0  0  0  0  0  0  0  0  0  0
   -1.3682    0.5892    0.4050 C   0  0  2  0  0  0  0  0  0  0  0  0
   -0.3480    0.4337    1.3272 O   0  0  0  0  0  0  0  0  0  0  0  0
   -2.5757   -0.1493    0.9388 C   0  0  1  0  0  0  0  0  0  0  0  0
   -2.8798    0.4557    2.1783 O   0  0  0  0  0  0  0  0  0  0  0  0
   -3.7918    0.0784    0.0623 C   0  0  0  0  0  0  0  0  0  0  0  0
   -4.9322   -0.4859    0.6021 O   0  0  0  0  0  0  0  0  0  0  0  0
  1  2  1  0
  2  3  1  0
  3  4  1  0
  4  5  2  0
  5  6  1  0
  5  7  1  0
  7  8  1  0
  8  9  2  0
  8 10  1  0
 10 11  1  0
 11 12  1  0
 12 13  1  0
 13 14  1  1
 13 15  1  0
 15 16  1  1
 15 17  1  0
 17 18  1  0
 12  1  1  0
 10  3  2  0
M  END

