
     RDKit          3D

 26 27  0  0  0  0  0  0  0  0999 V2000
    0.4944   -0.0928    1.2488 C   0  0  0  0  0  0  0  0  0  0  0  0
    0.1740   -0.0077   -0.2413 C   0  0  0  0  0  0  0  0  0  0  0  0
   -0.7533    0.7671   -0.7324 N   0  0  0  0  0  4  0  0  0  0  0  0
   -1.7709    1.4989    0.0696 C   0  0  0  0  0  0  0  0  0  0  0  0
   -3.1120    0.9168   -0.0132 C   0  0  0  0  0  0  0  0  0  0  0  0
   -4.0997    1.5900   -0.7818 C   0  0  0  0  0  0  0  0  0  0  0  0
   -5.3396    1.1137   -0.8822 N   0  0  0  0  0  0  0  0  0  0  0  0
   -5.7437   -0.0158   -0.2777 C   0  0  0  0  0  0  0  0  0  0  0  0
   -7.1485   -0.4895   -0.4304 C   0  0  0  0  0  0  0  0  0  0  0  0
   -4.8335   -0.6634    0.4479 N   0  0  0  0  0  0  0  0  0  0  0  0
   -3.5327   -0.2166    0.5878 C   0  0  0  0  0  0  0  0  0  0  0  0
   -2.6471   -0.9922    1.3823 N   0  0  0  0  0  0  0  0  0  0  0  0
   -0.8862    0.8333   -2.0665 C   0  0  0  0  0  0  0  0  0  0  0  0
    0.3120   -0.2191   -2.6376 S   0  0  0  0  0  0  0  0  0  0  0  0
    0.9597   -0.7186   -1.1128 C   0  0  0  0  0  0  0  0  0  0  0  0
    2.0896   -1.6762   -0.8746 C   0  0  0  0  0  0  0  0  0  0  0  0
    3.4027   -1.0471   -0.5930 C   0  0  0  0  0  0  0  0  0  0  0  0
    3.3603   -0.2761    0.5245 O   0  0  0  0  0  0  0  0  0  0  0  0
    4.7623    0.5014    0.9600 P   0  0  0  0  0  5  0  0  0  0  0  0
    4.9596    1.9845    0.1682 O   0  0  0  0  0  1  0  0  0  0  0  0
    4.6413    0.8304    2.4537 O   0  0  0  0  0  0  0  0  0  0  0  0
    6.1454   -0.4572    0.8038 O   0  0  0  0  0  0  0  0  0  0  0  0
    7.4503    0.6105    0.5212 P   0  0  0  0  0  5  0  0  0  0  0  0
    7.0913    2.0366    1.3549 O   0  0  0  0  0  1  0  0  0  0  0  0
    7.4969    0.8367   -0.9706 O   0  0  0  0  0  0  0  0  0  0  0  0
    8.8830   -0.0623    1.0869 O   0  0  0  0  0  1  0  0  0  0  0  0
  1  2  1  0
  2  3  1  0
  3  4  1  0
  4  5  1  0
  5  6  2  0
  6  7  1  0
  7  8  2  0
  8  9  1  0
  8 10  1  0
 10 11  2  0
 11 12  1  0
  3 13  2  0
 13 14  1  0
 14 15  1  0
 15 16  1  0
 16 17  1  0
 17 18  1  0
 18 19  1  0
 19 20  1  0
 19 21  2  0
 19 22  1  0
 22 23  1  0
 23 24  1  0
 23 25  2  0
 23 26  1  0
 11  5  1  0
 15  2  2  0
M  CHG  4   3   1  20  -1  24  -1  26  -1
M  END

