
     RDKit          3D

  9  9  0  0  0  0  0  0  0  0999 V2000
   -2.1900   -0.0997    0.1247 C   0  0  0  0  0  0  0  0  0  0  0  0
   -0.7149   -0.0442    0.0386 C   0  0  0  0  0  0  0  0  0  0  0  0
   -0.0578    1.1566    0.1852 C   0  0  0  0  0  0  0  0  0  0  0  0
   -0.7289    2.2010    0.3926 O   0  0  0  0  0  0  0  0  0  0  0  0
    1.2807    1.1707    0.1014 N   0  0  0  0  0  0  0  0  0  0  0  0
    2.0374    0.0914   -0.1169 C   0  0  0  0  0  0  0  0  0  0  0  0
    1.4041   -1.0893   -0.2619 N   0  0  0  0  0  0  0  0  0  0  0  0
    0.0638   -1.1654   -0.1877 C   0  0  0  0  0  0  0  0  0  0  0  0
    3.3091    0.1520   -0.1891 O   0  0  0  0  0  0  0  0  0  0  0  0
  1  2  1  0
  2  3  1  0
  3  4  2  0
  3  5  1  0
  5  6  1  0
  6  7  1  0
  7  8  1  0
  6  9  2  0
  8  2  2  0
M  END

