
     RDKit          3D

 17 18  0  0  0  0  0  0  0  0999 V2000
    3.8085    1.9316   -0.7982 C   0  0  0  0  0  0  0  0  0  0  0  0
    3.0433    0.7212   -0.3953 C   0  0  0  0  0  0  0  0  0  0  0  0
    3.6666   -0.3438    0.2211 C   0  0  0  0  0  0  0  0  0  0  0  0
    4.9038   -0.3060    0.4536 O   0  0  0  0  0  0  0  0  0  0  0  0
    2.9641   -1.4458    0.5868 N   0  0  0  0  0  0  0  0  0  0  0  0
    1.6191   -1.4910    0.3359 C   0  0  0  0  0  0  0  0  0  0  0  0
    0.9839   -0.4764   -0.2597 N   0  0  0  0  0  0  0  0  0  0  0  0
    1.6749    0.6177   -0.6240 C   0  0  0  0  0  0  0  0  0  0  0  0
   -0.4105   -0.5205   -0.5210 C   0  0  1  0  0  0  0  0  0  0  0  0
   -1.1990   -1.5605    0.1874 C   0  0  0  0  0  0  0  0  0  0  0  0
   -2.6345   -1.0528   -0.0342 C   0  0  2  0  0  0  0  0  0  0  0  0
   -3.2231   -1.8090   -1.0621 O   0  0  0  0  0  0  0  0  0  0  0  0
   -2.3801    0.3671   -0.5048 C   0  0  1  0  0  0  0  0  0  0  0  0
   -3.3822    1.2626    0.1589 C   0  0  0  0  0  0  0  0  0  0  0  0
   -3.2133    2.5965   -0.1788 O   0  0  0  0  0  0  0  0  0  0  0  0
   -1.0752    0.6604   -0.1896 O   0  0  0  0  0  0  0  0  0  0  0  0
    0.9776   -2.4925    0.6677 O   0  0  0  0  0  0  0  0  0  0  0  0
  1  2  1  0
  2  3  1  0
  3  4  2  0
  3  5  1  0
  5  6  1  0
  6  7  1  0
  7  8  1  0
  9  7  1  1
  9 10  1  0
 10 11  1  0
 11 12  1  6
 11 13  1  0
 13 14  1  1
 14 15  1  0
 13 16  1  0
  6 17  2  0
  8  2  2  0
 16  9  1  0
M  END

