
     RDKit          3D

  5  4  0  0  0  0  0  0  0  0999 V2000
   -0.2767    1.3103   -0.1747 C   0  0  0  0  0  0  0  0  0  0  0  0
    0.0837    0.0077    0.3320 N   0  0  0  0  0  4  0  0  0  0  0  0
    0.4873    0.1753    1.6157 O   0  0  0  0  0  1  0  0  0  0  0  0
    1.2127   -0.4608   -0.4588 C   0  0  0  0  0  0  0  0  0  0  0  0
   -1.0078   -0.9257    0.3429 C   0  0  0  0  0  0  0  0  0  0  0  0
  1  2  1  0
  2  3  1  0
  2  4  1  0
  2  5  1  0
M  CHG  2   2   1   3  -1
M  END

