
     RDKit          3D

 15 16  0  0  0  0  0  0  0  0999 V2000
   -0.2524   -2.0461   -0.0689 C   0  0  0  0  0  0  0  0  0  0  0  0
   -1.4859   -1.9723    0.4473 N   0  0  0  0  0  0  0  0  0  0  0  0
   -1.9146   -0.7217    0.2792 C   0  0  0  0  0  0  0  0  0  0  0  0
   -3.1276   -0.1565    0.6416 C   0  0  0  0  0  0  0  0  0  0  0  0
   -3.3588    1.1692    0.3599 C   0  0  0  0  0  0  0  0  0  0  0  0
   -2.4098    1.9244   -0.2685 C   0  0  0  0  0  0  0  0  0  0  0  0
   -1.2060    1.3365   -0.6203 C   0  0  0  0  0  0  0  0  0  0  0  0
   -0.9238    0.0133   -0.3610 C   0  0  0  0  0  0  0  0  0  0  0  0
    0.1381   -0.8291   -0.5836 C   0  0  0  0  0  0  0  0  0  0  0  0
    1.4309   -0.4938   -1.2024 C   0  0  0  0  0  0  0  0  0  0  0  0
    2.4079    0.1625   -0.2778 C   0  0  2  0  0  0  0  0  0  0  0  0
    2.7205   -0.7027    0.8659 N   0  0  0  0  0  4  0  0  0  0  0  0
    2.0406    1.5089    0.1796 C   0  0  0  0  0  0  0  0  0  0  0  0
    1.6185    1.6270    1.3561 O   0  0  0  0  0  0  0  0  0  0  0  0
    2.1246    2.6629   -0.5867 O   0  0  0  0  0  1  0  0  0  0  0  0
  1  2  1  0
  2  3  1  0
  3  4  2  0
  4  5  1  0
  5  6  2  0
  6  7  1  0
  7  8  2  0
  8  9  1  0
  9 10  1  0
 10 11  1  0
 11 12  1  1
 11 13  1  0
 13 14  2  0
 13 15  1  0
  9  1  2  0
  8  3  1  0
M  CHG  2  12   1  15  -1
M  END

