
     RDKit          3D

  5  4  0  0  0  0  0  0  0  0999 V2000
   -1.0650   -1.0666   -0.9535 O   0  0  0  0  0  0  0  0  0  0  0  0
   -0.5589   -0.0512    0.0081 S   0  0  0  0  0  6  0  0  0  0  0  0
   -1.0675   -0.2247    1.4026 O   0  0  0  0  0  0  0  0  0  0  0  0
   -1.0513    1.4344   -0.4958 O   0  0  0  0  0  1  0  0  0  0  0  0
    1.4240   -0.4590    0.2849 S   0  0  0  0  0  0  0  0  0  0  0  0
  1  2  2  0
  2  3  2  0
  2  4  1  0
  2  5  1  0
M  CHG  1   4  -1
M  END

