
     RDKit          3D

 13 13  0  0  0  0  0  0  0  0999 V2000
   -1.6203   -1.4286    1.0035 C   0  0  0  0  0  0  0  0  0  0  0  0
   -2.1543   -0.2355    0.3095 C   0  0  2  0  0  0  0  0  0  0  0  0
   -1.4409   -0.1132   -1.0181 C   0  0  0  0  0  0  0  0  0  0  0  0
    0.0036    0.0361   -0.7859 C   0  0  0  0  0  0  0  0  0  0  0  0
    0.6305    1.2529   -0.6271 C   0  0  0  0  0  0  0  0  0  0  0  0
    1.9822    1.3307   -0.4130 C   0  0  0  0  0  0  0  0  0  0  0  0
    2.7349    0.1764   -0.3541 C   0  0  0  0  0  0  0  0  0  0  0  0
    4.1014    0.2766   -0.1365 O   0  0  0  0  0  0  0  0  0  0  0  0
    2.1277   -1.0408   -0.5098 C   0  0  0  0  0  0  0  0  0  0  0  0
    0.7699   -1.1064   -0.7243 C   0  0  0  0  0  0  0  0  0  0  0  0
   -1.9292    0.9565    1.1113 N   0  0  0  0  0  4  0  0  0  0  0  0
   -2.0037   -2.5666    0.6078 O   0  0  0  0  0  0  0  0  0  0  0  0
   -0.7244   -1.2900    2.0577 O   0  0  0  0  0  1  0  0  0  0  0  0
  1  2  1  0
  2  3  1  0
  3  4  1  0
  4  5  2  0
  5  6  1  0
  6  7  2  0
  7  8  1  0
  7  9  1  0
  9 10  2  0
  2 11  1  1
  1 12  2  0
  1 13  1  0
 10  4  1  0
M  CHG  2  11   1  13  -1
M  END

