
     RDKit          3D

 17 17  0  0  0  0  0  0  0  0999 V2000
   -2.8031   -0.4751   -1.3077 C   0  0  0  0  0  0  0  0  0  0  0  0
   -2.8231   -0.3302    0.1552 C   0  0  2  0  0  0  0  0  0  0  0  0
   -2.0026    0.8297    0.6298 C   0  0  0  0  0  0  0  0  0  0  0  0
   -0.5786    0.7228    0.2521 C   0  0  0  0  0  0  0  0  0  0  0  0
    0.3738    0.1167    1.0295 C   0  0  0  0  0  0  0  0  0  0  0  0
    1.6880    0.0351    0.6478 C   0  0  0  0  0  0  0  0  0  0  0  0
    2.0777    0.5710   -0.5448 C   0  0  0  0  0  0  0  0  0  0  0  0
    3.3908    0.5190   -0.9830 O   0  0  0  0  0  0  0  0  0  0  0  0
    4.6230   -0.2251   -0.0544 P   0  0  0  0  0  5  0  0  0  0  0  0
    4.3497   -1.8650    0.1513 O   0  0  0  0  0  1  0  0  0  0  0  0
    4.7408    0.5748    1.4389 O   0  0  0  0  0  1  0  0  0  0  0  0
    5.9381   -0.0552   -0.7807 O   0  0  0  0  0  0  0  0  0  0  0  0
    1.1492    1.1896   -1.3561 C   0  0  0  0  0  0  0  0  0  0  0  0
   -0.1653    1.2622   -0.9569 C   0  0  0  0  0  0  0  0  0  0  0  0
   -2.3336   -1.5243    0.8309 N   0  0  0  0  0  4  0  0  0  0  0  0
   -2.1664   -1.4030   -1.8624 O   0  0  0  0  0  0  0  0  0  0  0  0
   -3.4954    0.4230   -2.0908 O   0  0  0  0  0  1  0  0  0  0  0  0
  1  2  1  0
  2  3  1  0
  3  4  1  0
  4  5  2  0
  5  6  1  0
  6  7  2  0
  7  8  1  0
  8  9  1  0
  9 10  1  0
  9 11  1  0
  9 12  2  0
  7 13  1  0
 13 14  2  0
  2 15  1  1
  1 16  2  0
  1 17  1  0
 14  4  1  0
M  CHG  4  10  -1  11  -1  15   1  17  -1
M  END

