
     RDKit          3D

 39 41  0  0  0  0  0  0  0  0999 V2000
   -4.8415   -4.2571    0.1770 C   0  0  0  0  0  0  0  0  0  0  0  0
   -5.1009   -3.0508    0.9855 C   0  0  0  0  0  0  0  0  0  0  0  0
   -5.2773   -3.1631    2.2256 O   0  0  0  0  0  0  0  0  0  0  0  0
   -5.1479   -1.7872    0.3582 N   0  0  0  0  0  0  0  0  0  0  0  0
   -5.3984   -0.5499    1.0836 C   0  0  1  0  0  0  0  0  0  0  0  0
   -4.2094    0.3283    0.9072 C   0  0  1  0  0  0  0  0  0  0  0  0
   -3.4368   -0.0159   -0.2051 O   0  0  0  0  0  0  0  0  0  0  0  0
   -1.8863   -0.5346    0.2273 P   0  0  0  0  0  5  0  0  0  0  0  0
   -0.7331    0.3674   -0.6094 O   0  0  0  0  0  0  0  0  0  0  0  0
    0.5194    0.8705    0.4089 P   0  0  0  0  0  5  0  0  0  0  0  0
    1.8186    1.3360   -0.5715 O   0  0  0  0  0  0  0  0  0  0  0  0
    2.9842    0.9964    0.1258 C   0  0  0  0  0  0  0  0  0  0  0  0
    4.2339    1.3705   -0.6648 C   0  0  2  0  0  0  0  0  0  0  0  0
    4.3121    0.6361   -1.9626 C   0  0  2  0  0  0  0  0  0  0  0  0
    5.4740   -0.3200   -1.7229 C   0  0  2  0  0  0  0  0  0  0  0  0
    6.2943    0.5007   -0.7266 C   0  0  2  0  0  0  0  0  0  0  0  0
    7.2149   -0.3666   -0.0187 N   0  0  0  0  0  0  0  0  0  0  0  0
    8.2822   -0.8232   -0.6977 C   0  0  0  0  0  0  0  0  0  0  0  0
    9.1924   -1.6474   -0.0884 C   0  0  0  0  0  0  0  0  0  0  0  0
    8.9965   -1.9969    1.2201 C   0  0  0  0  0  0  0  0  0  0  0  0
    9.8147   -2.7614    1.8323 O   0  0  0  0  0  0  0  0  0  0  0  0
    7.9320   -1.5292    1.8635 N   0  0  0  0  0  0  0  0  0  0  0  0
    7.0416   -0.7187    1.2560 C   0  0  0  0  0  0  0  0  0  0  0  0
    6.0316   -0.2799    1.8801 O   0  0  0  0  0  0  0  0  0  0  0  0
    5.3222    0.9963    0.1050 O   0  0  0  0  0  0  0  0  0  0  0  0
    6.1963   -0.5429   -2.8892 O   0  0  0  0  0  0  0  0  0  0  0  0
    4.7477    1.5143   -2.9791 O   0  0  0  0  0  0  0  0  0  0  0  0
    0.0887    1.9567    1.3453 O   0  0  0  0  0  0  0  0  0  0  0  0
    0.9733   -0.4793    1.3465 O   0  0  0  0  0  1  0  0  0  0  0  0
   -1.7305   -2.0073   -0.0800 O   0  0  0  0  0  0  0  0  0  0  0  0
   -1.6612   -0.3766    1.9143 O   0  0  0  0  0  1  0  0  0  0  0  0
   -4.4540    1.6721    0.8630 O   0  0  0  0  0  0  0  0  0  0  0  0
   -5.4448    1.9622   -0.0609 C   0  0  1  0  0  0  0  0  0  0  0  0
   -6.7485    1.5039    0.5601 C   0  0  2  0  0  0  0  0  0  0  0  0
   -6.6911    0.0043    0.6224 C   0  0  2  0  0  0  0  0  0  0  0  0
   -7.7558   -0.4942    1.4093 O   0  0  0  0  0  0  0  0  0  0  0  0
   -7.8556    1.9243   -0.1449 O   0  0  0  0  0  0  0  0  0  0  0  0
   -5.4839    3.4284   -0.4217 C   0  0  0  0  0  0  0  0  0  0  0  0
   -5.7229    4.2361    0.6659 O   0  0  0  0  0  0  0  0  0  0  0  0
  1  2  1  0
  2  3  2  0
  2  4  1  0
  5  4  1  6
  5  6  1  0
  6  7  1  6
  7  8  1  0
  8  9  1  0
  9 10  1  0
 10 11  1  0
 11 12  1  0
 13 12  1  1
 13 14  1  0
 14 15  1  0
 15 16  1  0
 16 17  1  1
 17 18  1  0
 18 19  2  0
 19 20  1  0
 20 21  2  0
 20 22  1  0
 22 23  1  0
 23 24  2  0
 16 25  1  0
 15 26  1  6
 14 27  1  6
 10 28  2  0
 10 29  1  0
  8 30  2  0
  8 31  1  0
  6 32  1  0
 32 33  1  0
 33 34  1  0
 34 35  1  0
 35 36  1  1
 34 37  1  6
 33 38  1  1
 38 39  1  0
 23 17  1  0
 25 13  1  0
 35  5  1  0
M  CHG  2  29  -1  31  -1
M  END

