
     RDKit          3D

 39 41  0  0  0  0  0  0  0  0999 V2000
   -6.6251    3.3178    1.6670 C   0  0  0  0  0  0  0  0  0  0  0  0
   -5.5934    2.2680    1.6363 C   0  0  0  0  0  0  0  0  0  0  0  0
   -4.6129    2.3473    2.4025 O   0  0  0  0  0  0  0  0  0  0  0  0
   -5.7051    1.1809    0.7529 N   0  0  0  0  0  0  0  0  0  0  0  0
   -4.7153    0.1474    0.7041 C   0  0  1  0  0  0  0  0  0  0  0  0
   -5.2699   -1.2223    0.9881 C   0  0  1  0  0  0  0  0  0  0  0  0
   -5.8124   -1.3382    2.2470 O   0  0  0  0  0  0  0  0  0  0  0  0
   -6.3067   -1.4801   -0.0791 C   0  0  2  0  0  0  0  0  0  0  0  0
   -6.7192   -2.8203    0.0929 O   0  0  0  0  0  0  0  0  0  0  0  0
   -5.7962   -1.2745   -1.4500 C   0  0  1  0  0  0  0  0  0  0  0  0
   -6.9998   -0.9977   -2.3625 C   0  0  0  0  0  0  0  0  0  0  0  0
   -6.5493   -1.0367   -3.6816 O   0  0  0  0  0  0  0  0  0  0  0  0
   -4.8737   -0.3302   -1.6647 O   0  0  0  0  0  0  0  0  0  0  0  0
   -4.0966    0.1202   -0.6582 C   0  0  2  0  0  0  0  0  0  0  0  0
   -2.9449   -0.6628   -0.5845 O   0  0  0  0  0  0  0  0  0  0  0  0
   -1.5540    0.2463   -0.8696 P   0  0  0  0  0  5  0  0  0  0  0  0
   -0.8860    0.8513    0.5610 O   0  0  0  0  0  0  0  0  0  0  0  0
    0.4532   -0.0810    1.0460 P   0  0  0  0  0  5  0  0  0  0  0  0
    1.7296    0.2891    0.0172 O   0  0  0  0  0  0  0  0  0  0  0  0
    2.9478    0.3486    0.7100 C   0  0  0  0  0  0  0  0  0  0  0  0
    4.0543    0.6794   -0.2388 C   0  0  2  0  0  0  0  0  0  0  0  0
    4.3336   -0.4588   -1.2091 C   0  0  2  0  0  0  0  0  0  0  0  0
    5.7660   -0.1425   -1.6320 C   0  0  2  0  0  0  0  0  0  0  0  0
    6.2592    0.7291   -0.5157 C   0  0  2  0  0  0  0  0  0  0  0  0
    7.5168    0.2485    0.0100 N   0  0  0  0  0  0  0  0  0  0  0  0
    7.6507   -0.1857    1.2764 C   0  0  0  0  0  0  0  0  0  0  0  0
    8.8679   -0.6300    1.7193 C   0  0  0  0  0  0  0  0  0  0  0  0
    9.9666   -0.6338    0.8632 C   0  0  0  0  0  0  0  0  0  0  0  0
   11.0862   -1.0446    1.2771 O   0  0  0  0  0  0  0  0  0  0  0  0
    9.7884   -0.1925   -0.3909 N   0  0  0  0  0  0  0  0  0  0  0  0
    8.5785    0.2402   -0.8027 C   0  0  0  0  0  0  0  0  0  0  0  0
    8.4604    0.6464   -1.9933 O   0  0  0  0  0  0  0  0  0  0  0  0
    5.2628    0.7361    0.4617 O   0  0  0  0  0  0  0  0  0  0  0  0
    5.6897    0.6305   -2.8057 O   0  0  0  0  0  0  0  0  0  0  0  0
    3.4635   -0.4351   -2.2868 O   0  0  0  0  0  0  0  0  0  0  0  0
    0.0323   -1.5413    0.8983 O   0  0  0  0  0  0  0  0  0  0  0  0
    0.8356    0.2549    2.6519 O   0  0  0  0  0  1  0  0  0  0  0  0
   -1.9720    1.4486   -1.7180 O   0  0  0  0  0  0  0  0  0  0  0  0
   -0.4244   -0.6243   -1.7641 O   0  0  0  0  0  1  0  0  0  0  0  0
  1  2  1  0
  2  3  2  0
  2  4  1  0
  5  4  1  6
  5  6  1  0
  6  7  1  1
  6  8  1  0
  8  9  1  6
  8 10  1  0
 10 11  1  6
 11 12  1  0
 10 13  1  0
 13 14  1  0
 14 15  1  1
 15 16  1  0
 16 17  1  0
 17 18  1  0
 18 19  1  0
 19 20  1  0
 21 20  1  1
 21 22  1  0
 22 23  1  0
 23 24  1  0
 24 25  1  1
 25 26  1  0
 26 27  2  0
 27 28  1  0
 28 29  2  0
 28 30  1  0
 30 31  1  0
 31 32  2  0
 24 33  1  0
 23 34  1  6
 22 35  1  6
 18 36  2  0
 18 37  1  0
 16 38  2  0
 16 39  1  0
 31 25  1  0
 33 21  1  0
 14  5  1  0
M  CHG  2  37  -1  39  -1
M  END

