
     RDKit          3D

 64 63  0  0  0  0  0  0  0  0999 V2000
   14.5892    3.4189   -1.7683 C   0  0  0  0  0  0  0  0  0  0  0  0
   13.7630    3.0911   -0.5756 C   0  0  0  0  0  0  0  0  0  0  0  0
   12.9349    4.1036    0.1215 C   0  0  0  0  0  0  0  0  0  0  0  0
   13.8225    1.8302   -0.1221 C   0  0  0  0  0  0  0  0  0  0  0  0
   14.6332    0.7891   -0.7145 C   0  0  0  0  0  0  0  0  0  0  0  0
   13.8690   -0.4431   -1.1323 C   0  0  0  0  0  0  0  0  0  0  0  0
   13.1490   -0.9987    0.0209 C   0  0  0  0  0  0  0  0  0  0  0  0
   13.9377   -1.2856    1.2646 C   0  0  0  0  0  0  0  0  0  0  0  0
   11.8699   -1.2438   -0.0227 C   0  0  0  0  0  0  0  0  0  0  0  0
   10.9372   -1.0564   -1.1200 C   0  0  0  0  0  0  0  0  0  0  0  0
    9.7670   -0.1497   -0.8963 C   0  0  0  0  0  0  0  0  0  0  0  0
   10.0631    1.2550   -0.6514 C   0  0  0  0  0  0  0  0  0  0  0  0
   10.7112    2.0452   -1.7731 C   0  0  0  0  0  0  0  0  0  0  0  0
    9.7651    1.8823    0.4566 C   0  0  0  0  0  0  0  0  0  0  0  0
    9.0917    1.1980    1.5724 C   0  0  0  0  0  0  0  0  0  0  0  0
    7.6969    1.8025    1.8636 C   0  0  0  0  0  0  0  0  0  0  0  0
    7.0572    1.0388    2.9666 C   0  0  0  0  0  0  0  0  0  0  0  0
    7.7092    0.9893    4.2976 C   0  0  0  0  0  0  0  0  0  0  0  0
    5.9193    0.4092    2.7754 C   0  0  0  0  0  0  0  0  0  0  0  0
    5.1635    0.3777    1.5255 C   0  0  0  0  0  0  0  0  0  0  0  0
    5.3126   -0.8878    0.7363 C   0  0  0  0  0  0  0  0  0  0  0  0
    4.9068   -2.0939    1.4364 C   0  0  0  0  0  0  0  0  0  0  0  0
    5.6475   -2.4675    2.7105 C   0  0  0  0  0  0  0  0  0  0  0  0
    3.9539   -2.8744    0.9993 C   0  0  0  0  0  0  0  0  0  0  0  0
    3.1820   -2.6523   -0.2118 C   0  0  0  0  0  0  0  0  0  0  0  0
    1.6776   -2.9272    0.0471 C   0  0  0  0  0  0  0  0  0  0  0  0
    0.9683   -2.7144   -1.2052 C   0  0  0  0  0  0  0  0  0  0  0  0
    1.4653   -3.5295   -2.3883 C   0  0  0  0  0  0  0  0  0  0  0  0
   -0.0542   -1.8908   -1.4396 C   0  0  0  0  0  0  0  0  0  0  0  0
   -0.5984   -1.0625   -0.3859 C   0  0  0  0  0  0  0  0  0  0  0  0
   -0.8684    0.3646   -0.7787 C   0  0  0  0  0  0  0  0  0  0  0  0
   -1.8142    0.6029   -1.8495 C   0  0  0  0  0  0  0  0  0  0  0  0
   -1.5468    0.1657   -3.2831 C   0  0  0  0  0  0  0  0  0  0  0  0
   -2.9486    1.2560   -1.6949 C   0  0  0  0  0  0  0  0  0  0  0  0
   -3.4239    1.8310   -0.4480 C   0  0  0  0  0  0  0  0  0  0  0  0
   -4.7787    1.1926   -0.0255 C   0  0  0  0  0  0  0  0  0  0  0  0
   -4.5799   -0.2423    0.2565 C   0  0  0  0  0  0  0  0  0  0  0  0
   -3.7266   -0.6622    1.4364 C   0  0  0  0  0  0  0  0  0  0  0  0
   -5.1572   -1.1539   -0.4519 C   0  0  0  0  0  0  0  0  0  0  0  0
   -6.0675   -0.9825   -1.5937 C   0  0  0  0  0  0  0  0  0  0  0  0
   -7.2198   -1.9788   -1.3440 C   0  0  0  0  0  0  0  0  0  0  0  0
   -8.2437   -1.9529   -2.3785 C   0  0  0  0  0  0  0  0  0  0  0  0
   -7.8629   -2.1964   -3.8339 C   0  0  0  0  0  0  0  0  0  0  0  0
   -9.5110   -1.7298   -2.1740 C   0  0  0  0  0  0  0  0  0  0  0  0
  -10.1091   -1.4593   -0.7889 C   0  0  0  0  0  0  0  0  0  0  0  0
  -10.8658   -2.6924   -0.4673 C   0  0  0  0  0  0  0  0  0  0  0  0
  -11.6286   -2.8873    0.7250 C   0  0  0  0  0  0  0  0  0  0  0  0
  -12.2981   -4.2847    0.9055 C   0  0  0  0  0  0  0  0  0  0  0  0
  -11.8399   -2.0684    1.6919 C   0  0  0  0  0  0  0  0  0  0  0  0
  -11.4033   -0.7006    1.9241 C   0  0  0  0  0  0  0  0  0  0  0  0
  -12.6657    0.2129    1.9684 C   0  0  0  0  0  0  0  0  0  0  0  0
  -12.2016    1.5818    2.1864 C   0  0  0  0  0  0  0  0  0  0  0  0
  -11.4502    1.8641    3.4465 C   0  0  0  0  0  0  0  0  0  0  0  0
  -12.3955    2.5883    1.3631 C   0  0  0  0  0  0  0  0  0  0  0  0
  -13.1201    2.4332    0.1006 C   0  0  0  0  0  0  0  0  0  0  0  0
  -14.2552    3.2791    0.0948 O   0  0  0  0  0  0  0  0  0  0  0  0
  -15.0418    3.0468   -1.3694 P   0  0  0  0  0  5  0  0  0  0  0  0
  -14.8676    4.4062   -2.3350 O   0  0  0  0  0  0  0  0  0  0  0  0
  -16.0445    5.5672   -2.0835 P   0  0  0  0  0  5  0  0  0  0  0  0
  -17.3705    5.0488   -2.6419 O   0  0  0  0  0  0  0  0  0  0  0  0
  -15.6200    6.9671   -2.9241 O   0  0  0  0  0  1  0  0  0  0  0  0
  -16.2022    5.9597   -0.4487 O   0  0  0  0  0  1  0  0  0  0  0  0
  -16.7040    2.8071   -1.1102 O   0  0  0  0  0  1  0  0  0  0  0  0
  -14.4380    1.8585   -2.0925 O   0  0  0  0  0  0  0  0  0  0  0  0
  1  2  1  0
  2  3  1  0
  2  4  2  3
  4  5  1  0
  5  6  1  0
  6  7  1  0
  7  8  1  0
  7  9  2  0
  9 10  1  0
 10 11  1  0
 11 12  1  0
 12 13  1  0
 12 14  2  0
 14 15  1  0
 15 16  1  0
 16 17  1  0
 17 18  1  0
 17 19  2  0
 19 20  1  0
 20 21  1  0
 21 22  1  0
 22 23  1  0
 22 24  2  0
 24 25  1  0
 25 26  1  0
 26 27  1  0
 27 28  1  0
 27 29  2  0
 29 30  1  0
 30 31  1  0
 31 32  1  0
 32 33  1  0
 32 34  2  0
 34 35  1  0
 35 36  1  0
 36 37  1  0
 37 38  1  0
 37 39  2  0
 39 40  1  0
 40 41  1  0
 41 42  1  0
 42 43  1  0
 42 44  2  0
 44 45  1  0
 45 46  1  0
 46 47  1  0
 47 48  1  0
 47 49  2  0
 49 50  1  0
 50 51  1  0
 51 52  1  0
 52 53  1  0
 52 54  2  0
 54 55  1  0
 55 56  1  0
 56 57  1  0
 57 58  1  0
 58 59  1  0
 59 60  2  0
 59 61  1  0
 59 62  1  0
 57 63  1  0
 57 64  2  0
M  CHG  3  61  -1  62  -1  63  -1
M  END

