
     RDKit          3D

 60 59  0  0  0  0  0  0  0  0999 V2000
  -14.9771   -1.6506   -2.2954 C   0  0  0  0  0  0  0  0  0  0  0  0
  -14.5796   -0.5447   -1.4585 C   0  0  0  0  0  0  0  0  0  0  0  0
  -15.2790    0.8003   -1.5989 C   0  0  0  0  0  0  0  0  0  0  0  0
  -13.6229   -0.6078   -0.5631 C   0  0  0  0  0  0  0  0  0  0  0  0
  -13.2171    0.5382    0.3044 C   0  0  0  0  0  0  0  0  0  0  0  0
  -13.2034    0.1588    1.7870 C   0  0  0  0  0  0  0  0  0  0  0  0
  -12.8054    1.4480    2.4731 C   0  0  0  0  0  0  0  0  0  0  0  0
  -13.8509    2.5510    2.4691 C   0  0  0  0  0  0  0  0  0  0  0  0
  -11.6210    1.5934    2.9801 C   0  0  0  0  0  0  0  0  0  0  0  0
  -10.6463    0.4551    2.8661 C   0  0  0  0  0  0  0  0  0  0  0  0
   -9.5938    0.9599    1.8289 C   0  0  0  0  0  0  0  0  0  0  0  0
   -8.7681   -0.1914    1.4004 C   0  0  0  0  0  0  0  0  0  0  0  0
   -7.9960   -1.0039    2.3492 C   0  0  0  0  0  0  0  0  0  0  0  0
   -8.7638   -0.5412    0.1017 C   0  0  0  0  0  0  0  0  0  0  0  0
   -9.5082    0.1265   -0.9289 C   0  0  0  0  0  0  0  0  0  0  0  0
   -8.6492    0.4424   -2.1768 C   0  0  0  0  0  0  0  0  0  0  0  0
   -8.0890   -0.8682   -2.5923 C   0  0  0  0  0  0  0  0  0  0  0  0
   -9.0489   -1.9912   -2.8886 C   0  0  0  0  0  0  0  0  0  0  0  0
   -6.7769   -1.1069   -2.7098 C   0  0  0  0  0  0  0  0  0  0  0  0
   -5.7557   -0.0994   -2.4437 C   0  0  0  0  0  0  0  0  0  0  0  0
   -4.7063   -0.5892   -1.4270 C   0  0  0  0  0  0  0  0  0  0  0  0
   -3.7146    0.5084   -1.2577 C   0  0  0  0  0  0  0  0  0  0  0  0
   -3.0421    0.9804   -2.5322 C   0  0  0  0  0  0  0  0  0  0  0  0
   -3.4453    1.0390   -0.1334 C   0  0  0  0  0  0  0  0  0  0  0  0
   -4.0331    0.6913    1.1377 C   0  0  0  0  0  0  0  0  0  0  0  0
   -2.9435    0.2494    2.1326 C   0  0  0  0  0  0  0  0  0  0  0  0
   -2.1727   -0.8996    1.6772 C   0  0  0  0  0  0  0  0  0  0  0  0
   -2.9458   -2.1494    1.3298 C   0  0  0  0  0  0  0  0  0  0  0  0
   -0.8638   -0.9354    1.5372 C   0  0  0  0  0  0  0  0  0  0  0  0
    0.0162    0.1898    1.8425 C   0  0  0  0  0  0  0  0  0  0  0  0
    0.6525    0.8093    0.5986 C   0  0  0  0  0  0  0  0  0  0  0  0
    1.5937    1.8383    0.9714 C   0  0  0  0  0  0  0  0  0  0  0  0
    1.0706    3.0074    1.7692 C   0  0  0  0  0  0  0  0  0  0  0  0
    2.9032    1.8654    0.6831 C   0  0  0  0  0  0  0  0  0  0  0  0
    3.4487    0.7667   -0.0920 C   0  0  0  0  0  0  0  0  0  0  0  0
    4.6947    0.0972    0.4203 C   0  0  0  0  0  0  0  0  0  0  0  0
    5.8971    0.9288    0.4422 C   0  0  0  0  0  0  0  0  0  0  0  0
    6.1076    2.0673    1.3621 C   0  0  0  0  0  0  0  0  0  0  0  0
    6.8882    0.6051   -0.4507 C   0  0  0  0  0  0  0  0  0  0  0  0
    6.6376   -0.5129   -1.3385 C   0  0  0  0  0  0  0  0  0  0  0  0
    7.5838   -1.6447   -1.4232 C   0  0  0  0  0  0  0  0  0  0  0  0
    7.9477   -2.3471   -0.2066 C   0  0  0  0  0  0  0  0  0  0  0  0
    6.9651   -3.0178    0.6631 C   0  0  0  0  0  0  0  0  0  0  0  0
    9.2576   -2.4492    0.1505 C   0  0  0  0  0  0  0  0  0  0  0  0
   10.1967   -1.8022   -0.8029 C   0  0  0  0  0  0  0  0  0  0  0  0
   11.6031   -1.6505   -0.2867 C   0  0  0  0  0  0  0  0  0  0  0  0
   11.7761   -0.7930    0.8791 C   0  0  0  0  0  0  0  0  0  0  0  0
   11.1755   -1.1365    2.1964 C   0  0  0  0  0  0  0  0  0  0  0  0
   12.4817    0.3536    0.6975 C   0  0  0  0  0  0  0  0  0  0  0  0
   13.0345    0.6851   -0.6244 C   0  0  0  0  0  0  0  0  0  0  0  0
   14.4939    0.5456   -0.8758 C   0  0  0  0  0  0  0  0  0  0  0  0
   15.3552    1.4173   -0.0378 C   0  0  0  0  0  0  0  0  0  0  0  0
   15.6109    0.9791    1.3854 C   0  0  0  0  0  0  0  0  0  0  0  0
   16.0979    2.3600   -0.5464 C   0  0  0  0  0  0  0  0  0  0  0  0
   16.0823    2.5340   -2.0767 C   0  0  0  0  0  0  0  0  0  0  0  0
   17.4309    2.3278   -2.3122 O   0  0  0  0  0  0  0  0  0  0  0  0
   17.7874    1.1265   -3.3678 P   0  0  0  0  0  5  0  0  0  0  0  0
   18.8017    0.0269   -2.3760 O   0  0  0  0  0  1  0  0  0  0  0  0
   16.4435    0.1786   -3.7481 O   0  0  0  0  0  1  0  0  0  0  0  0
   18.6050    1.3662   -4.5603 O   0  0  0  0  0  0  0  0  0  0  0  0
  1  2  1  0
  2  3  1  0
  2  4  2  3
  4  5  1  0
  5  6  1  0
  6  7  1  0
  7  8  1  0
  7  9  2  0
  9 10  1  0
 10 11  1  0
 11 12  1  0
 12 13  1  0
 12 14  2  0
 14 15  1  0
 15 16  1  0
 16 17  1  0
 17 18  1  0
 17 19  2  0
 19 20  1  0
 20 21  1  0
 21 22  1  0
 22 23  1  0
 22 24  2  0
 24 25  1  0
 25 26  1  0
 26 27  1  0
 27 28  1  0
 27 29  2  0
 29 30  1  0
 30 31  1  0
 31 32  1  0
 32 33  1  0
 32 34  2  0
 34 35  1  0
 35 36  1  0
 36 37  1  0
 37 38  1  0
 37 39  2  0
 39 40  1  0
 40 41  1  0
 41 42  1  0
 42 43  1  0
 42 44  2  0
 44 45  1  0
 45 46  1  0
 46 47  1  0
 47 48  1  0
 47 49  2  0
 49 50  1  0
 50 51  1  0
 51 52  1  0
 52 53  1  0
 52 54  2  0
 54 55  1  0
 55 56  1  0
 56 57  1  0
 57 58  1  0
 57 59  1  0
 57 60  2  0
M  CHG  2  58  -1  59  -1
M  END

