
     RDKit          3D

 36 38  0  0  0  0  0  0  0  0999 V2000
   -5.5571   -2.1671   -0.0358 C   0  0  0  0  0  0  0  0  0  0  0  0
   -6.8120   -2.7443    0.2758 O   0  0  0  0  0  0  0  0  0  0  0  0
   -5.5367   -0.8094    0.6306 C   0  0  2  0  0  0  0  0  0  0  0  0
   -6.7827   -0.0350    0.2854 C   0  0  1  0  0  0  0  0  0  0  0  0
   -7.7155   -0.1325    1.3112 O   0  0  0  0  0  0  0  0  0  0  0  0
   -6.4038    1.4300    0.1621 C   0  0  2  0  0  0  0  0  0  0  0  0
   -7.5526    2.1578   -0.1129 O   0  0  0  0  0  0  0  0  0  0  0  0
   -5.4541    1.5300   -1.0124 C   0  0  1  0  0  0  0  0  0  0  0  0
   -4.8449    2.8068   -1.0315 O   0  0  0  0  0  0  0  0  0  0  0  0
   -4.3944    0.4919   -0.8934 C   0  0  2  0  0  0  0  0  0  0  0  0
   -4.3787   -0.0892    0.4022 O   0  0  0  0  0  0  0  0  0  0  0  0
   -3.1511    1.0408   -1.1187 O   0  0  0  0  0  0  0  0  0  0  0  0
   -2.3725    1.4739    0.3037 P   0  0  0  0  0  5  0  0  0  0  0  0
   -0.7487    1.6927   -0.0336 O   0  0  0  0  0  0  0  0  0  0  0  0
   -0.0900    0.4030   -0.9444 P   0  0  0  0  0  5  0  0  0  0  0  0
    1.5257    0.6174   -0.7964 O   0  0  0  0  0  0  0  0  0  0  0  0
    2.3396   -0.4030   -1.3457 C   0  0  0  0  0  0  0  0  0  0  0  0
    3.2557   -0.6525   -0.1167 C   0  0  2  0  0  0  0  0  0  0  0  0
    3.4130    0.5578    0.7574 C   0  0  2  0  0  0  0  0  0  0  0  0
    4.6961    0.1791    1.4947 C   0  0  2  0  0  0  0  0  0  0  0  0
    5.2706   -0.9095    0.6759 C   0  0  2  0  0  0  0  0  0  0  0  0
    6.5018   -0.6083    0.0316 N   0  0  0  0  0  0  0  0  0  0  0  0
    7.2495   -1.6736   -0.2881 C   0  0  0  0  0  0  0  0  0  0  0  0
    8.4223   -1.5434   -0.9707 C   0  0  0  0  0  0  0  0  0  0  0  0
    8.8588   -0.2747   -1.2974 C   0  0  0  0  0  0  0  0  0  0  0  0
    9.9815   -0.1431   -1.8811 O   0  0  0  0  0  0  0  0  0  0  0  0
    8.1155    0.7972   -0.9821 N   0  0  0  0  0  0  0  0  0  0  0  0
    6.8840    0.6306   -0.3162 C   0  0  0  0  0  0  0  0  0  0  0  0
    6.2499    1.6430   -0.1539 O   0  0  0  0  0  0  0  0  0  0  0  0
    4.3305   -1.3400   -0.2736 O   0  0  0  0  0  0  0  0  0  0  0  0
    4.2623   -0.2856    2.7632 O   0  0  0  0  0  0  0  0  0  0  0  0
    2.3498    0.6573    1.6982 O   0  0  0  0  0  0  0  0  0  0  0  0
   -0.3320   -0.8914   -0.0506 O   0  0  0  0  0  0  0  0  0  0  0  0
   -0.6877    0.1880   -2.4187 O   0  0  0  0  0  1  0  0  0  0  0  0
   -2.5352    0.4892    1.4158 O   0  0  0  0  0  0  0  0  0  0  0  0
   -2.9243    3.0238    0.8314 O   0  0  0  0  0  1  0  0  0  0  0  0
  1  2  1  0
  3  1  1  6
  3  4  1  0
  4  5  1  1
  4  6  1  0
  6  7  1  6
  6  8  1  0
  8  9  1  1
  8 10  1  0
 10 11  1  0
 10 12  1  1
 12 13  1  0
 13 14  1  0
 14 15  1  0
 15 16  1  0
 16 17  1  0
 18 17  1  6
 18 19  1  0
 19 20  1  0
 20 21  1  0
 21 22  1  6
 22 23  1  0
 23 24  2  0
 24 25  1  0
 25 26  2  0
 25 27  1  0
 27 28  1  0
 28 29  2  0
 21 30  1  0
 20 31  1  1
 19 32  1  1
 15 33  2  0
 15 34  1  0
 13 35  2  0
 13 36  1  0
 11  3  1  0
 28 22  1  0
 30 18  1  0
M  CHG  2  34  -1  36  -1
M  END

