
     RDKit          3D

 37 39  0  0  0  0  0  0  0  0999 V2000
   -1.3032   -0.7092    0.4639 C   0  0  0  0  0  0  0  0  0  0  0  0
   -1.4733   -1.0455   -0.8772 O   0  0  0  0  0  0  0  0  0  0  0  0
    0.0050   -1.4765   -1.5759 P   0  0  0  0  0  5  0  0  0  0  0  0
    0.2383   -2.9609   -1.4591 O   0  0  0  0  0  0  0  0  0  0  0  0
   -0.0863   -1.1107   -3.2248 O   0  0  0  0  0  1  0  0  0  0  0  0
    1.2799   -0.5860   -0.9301 O   0  0  0  0  0  0  0  0  0  0  0  0
    2.4676   -1.5801   -0.2584 P   0  0  0  0  0  5  0  0  0  0  0  0
    3.8574   -0.6638    0.0379 O   0  0  0  0  0  0  0  0  0  0  0  0
    4.8241   -0.8281   -0.9284 C   0  0  1  0  0  0  0  0  0  0  0  0
    5.1691    0.4241   -1.4560 O   0  0  0  0  0  0  0  0  0  0  0  0
    5.1817    1.3282   -0.4347 C   0  0  2  0  0  0  0  0  0  0  0  0
    5.7536    2.6140   -0.9721 C   0  0  0  0  0  0  0  0  0  0  0  0
    6.9853    2.9992   -0.5146 O   0  0  0  0  0  1  0  0  0  0  0  0
    5.1133    3.2893   -1.8030 O   0  0  0  0  0  0  0  0  0  0  0  0
    5.8458    0.8953    0.8147 C   0  0  1  0  0  0  0  0  0  0  0  0
    4.9445    0.8727    1.9035 O   0  0  0  0  0  0  0  0  0  0  0  0
    6.5938   -0.3894    0.7382 C   0  0  2  0  0  0  0  0  0  0  0  0
    7.9678   -0.1809    0.5352 O   0  0  0  0  0  0  0  0  0  0  0  0
    6.0766   -1.3617   -0.2653 C   0  0  1  0  0  0  0  0  0  0  0  0
    5.8387   -2.6265    0.2513 O   0  0  0  0  0  0  0  0  0  0  0  0
    2.0332   -2.1817    1.0505 O   0  0  0  0  0  0  0  0  0  0  0  0
    2.8915   -2.8463   -1.2882 O   0  0  0  0  0  1  0  0  0  0  0  0
   -2.5732   -0.3195    1.1354 C   0  0  2  0  0  0  0  0  0  0  0  0
   -3.6065   -1.4279    0.8880 C   0  0  2  0  0  0  0  0  0  0  0  0
   -4.8718   -0.6825    1.3341 C   0  0  2  0  0  0  0  0  0  0  0  0
   -4.4651    0.7422    1.1270 C   0  0  2  0  0  0  0  0  0  0  0  0
   -5.4609    1.3625    0.2662 N   0  0  0  0  0  0  0  0  0  0  0  0
   -5.2539    1.6023   -1.0400 C   0  0  0  0  0  0  0  0  0  0  0  0
   -6.2262    2.1961   -1.8324 C   0  0  0  0  0  0  0  0  0  0  0  0
   -7.4445    2.5573   -1.2836 C   0  0  0  0  0  0  0  0  0  0  0  0
   -8.3641    3.0983   -1.9500 O   0  0  0  0  0  0  0  0  0  0  0  0
   -7.6207    2.3034    0.0292 N   0  0  0  0  0  0  0  0  0  0  0  0
   -6.6515    1.7216    0.7785 C   0  0  0  0  0  0  0  0  0  0  0  0
   -6.8579    1.5047    1.9914 O   0  0  0  0  0  0  0  0  0  0  0  0
   -3.2048    0.7659    0.5823 O   0  0  0  0  0  0  0  0  0  0  0  0
   -4.9843   -0.9621    2.7156 O   0  0  0  0  0  0  0  0  0  0  0  0
   -3.3641   -2.5430    1.6516 O   0  0  0  0  0  0  0  0  0  0  0  0
  1  2  1  0
  2  3  1  0
  3  4  2  0
  3  5  1  0
  3  6  1  0
  6  7  1  0
  7  8  1  0
  9  8  1  1
  9 10  1  0
 10 11  1  0
 11 12  1  6
 12 13  1  0
 12 14  2  0
 11 15  1  0
 15 16  1  1
 15 17  1  0
 17 18  1  6
 17 19  1  0
 19 20  1  1
  7 21  2  0
  7 22  1  0
 23  1  1  6
 23 24  1  0
 24 25  1  0
 25 26  1  0
 26 27  1  6
 27 28  1  0
 28 29  2  0
 29 30  1  0
 30 31  2  0
 30 32  1  0
 32 33  1  0
 33 34  2  0
 26 35  1  0
 25 36  1  1
 24 37  1  1
 19  9  1  0
 33 27  1  0
 35 23  1  0
M  CHG  3   5  -1  13  -1  22  -1
M  END

