
     RDKit          3D

 36 38  0  0  0  0  0  0  0  0999 V2000
   -5.4162   -1.7790    0.4637 C   0  0  0  0  0  0  0  0  0  0  0  0
   -6.5507   -2.5895    0.2403 O   0  0  0  0  0  0  0  0  0  0  0  0
   -5.9024   -0.5948    1.2680 C   0  0  2  0  0  0  0  0  0  0  0  0
   -7.0809    0.0801    0.5859 C   0  0  2  0  0  0  0  0  0  0  0  0
   -7.7468   -0.8426   -0.2394 O   0  0  0  0  0  0  0  0  0  0  0  0
   -6.6601    1.3028   -0.1591 C   0  0  2  0  0  0  0  0  0  0  0  0
   -7.4633    1.3807   -1.3177 O   0  0  0  0  0  0  0  0  0  0  0  0
   -5.2362    1.2941   -0.6044 C   0  0  1  0  0  0  0  0  0  0  0  0
   -4.8882    2.6175   -0.9260 O   0  0  0  0  0  0  0  0  0  0  0  0
   -4.2791    0.7735    0.4383 C   0  0  2  0  0  0  0  0  0  0  0  0
   -4.9097    0.3048    1.5754 O   0  0  0  0  0  0  0  0  0  0  0  0
   -3.3291    1.7371    0.7869 O   0  0  0  0  0  0  0  0  0  0  0  0
   -1.7602    1.2531    0.4609 P   0  0  0  0  0  5  0  0  0  0  0  0
   -1.4837    1.3301   -1.1830 O   0  0  0  0  0  0  0  0  0  0  0  0
   -0.3576    0.1851   -1.7073 P   0  0  0  0  0  5  0  0  0  0  0  0
    0.7362   -0.0610   -0.4468 O   0  0  0  0  0  0  0  0  0  0  0  0
    1.9463   -0.4561   -0.9944 C   0  0  0  0  0  0  0  0  0  0  0  0
    2.9671   -0.6908    0.1031 C   0  0  2  0  0  0  0  0  0  0  0  0
    3.3384    0.5838    0.8078 C   0  0  2  0  0  0  0  0  0  0  0  0
    4.7354    0.2928    1.2985 C   0  0  2  0  0  0  0  0  0  0  0  0
    5.1625   -0.8595    0.4347 C   0  0  2  0  0  0  0  0  0  0  0  0
    6.3960   -0.6628   -0.2406 N   0  0  0  0  0  0  0  0  0  0  0  0
    7.3225   -1.6292   -0.2065 C   0  0  0  0  0  0  0  0  0  0  0  0
    8.5414   -1.4924   -0.8461 C   0  0  0  0  0  0  0  0  0  0  0  0
    8.8061   -0.3279   -1.5367 C   0  0  0  0  0  0  0  0  0  0  0  0
    9.9181   -0.2085   -2.1177 O   0  0  0  0  0  0  0  0  0  0  0  0
    7.8567    0.6196   -1.5509 N   0  0  0  0  0  0  0  0  0  0  0  0
    6.6737    0.4633   -0.9187 C   0  0  0  0  0  0  0  0  0  0  0  0
    5.8576    1.4216   -1.0008 O   0  0  0  0  0  0  0  0  0  0  0  0
    4.1477   -1.0808   -0.4916 O   0  0  0  0  0  0  0  0  0  0  0  0
    4.6171   -0.0917    2.6418 O   0  0  0  0  0  0  0  0  0  0  0  0
    2.4745    0.8175    1.8957 O   0  0  0  0  0  0  0  0  0  0  0  0
   -1.0342   -1.1555   -1.9765 O   0  0  0  0  0  0  0  0  0  0  0  0
    0.4571    0.6613   -3.0857 O   0  0  0  0  0  1  0  0  0  0  0  0
   -1.4608   -0.1479    0.9281 O   0  0  0  0  0  0  0  0  0  0  0  0
   -0.7194    2.3805    1.2133 O   0  0  0  0  0  1  0  0  0  0  0  0
  1  2  1  0
  3  1  1  6
  3  4  1  0
  4  5  1  6
  4  6  1  0
  6  7  1  6
  6  8  1  0
  8  9  1  1
  8 10  1  0
 10 11  1  0
 10 12  1  1
 12 13  1  0
 13 14  1  0
 14 15  1  0
 15 16  1  0
 16 17  1  0
 18 17  1  6
 18 19  1  0
 19 20  1  0
 20 21  1  0
 21 22  1  6
 22 23  1  0
 23 24  2  0
 24 25  1  0
 25 26  2  0
 25 27  1  0
 27 28  1  0
 28 29  2  0
 21 30  1  0
 20 31  1  1
 19 32  1  1
 15 33  2  0
 15 34  1  0
 13 35  2  0
 13 36  1  0
 11  3  1  0
 28 22  1  0
 30 18  1  0
M  CHG  2  34  -1  36  -1
M  END

