
     RDKit          3D

 34 36  0  0  0  0  0  0  0  0999 V2000
   -1.6131   -0.6458   -0.0383 C   0  0  0  0  0  0  0  0  0  0  0  0
   -1.1342   -0.2217    1.2004 O   0  0  0  0  0  0  0  0  0  0  0  0
    0.4857    0.2280    1.0181 P   0  0  0  0  0  5  0  0  0  0  0  0
    0.7510    1.3106    2.0648 O   0  0  0  0  0  0  0  0  0  0  0  0
    0.8109    0.8243   -0.5096 O   0  0  0  0  0  1  0  0  0  0  0  0
    1.4283   -1.1128    1.4181 O   0  0  0  0  0  0  0  0  0  0  0  0
    2.4577   -1.5698    0.1846 P   0  0  0  0  0  5  0  0  0  0  0  0
    3.8585   -0.6578    0.2012 O   0  0  0  0  0  0  0  0  0  0  0  0
    4.8916   -1.2481   -0.5057 C   0  0  1  0  0  0  0  0  0  0  0  0
    5.1790   -0.3795   -1.5822 O   0  0  0  0  0  0  0  0  0  0  0  0
    6.0453    0.6246   -1.2319 C   0  0  0  0  0  0  0  0  0  0  0  0
    5.8917    1.0865    0.1972 C   0  0  2  0  0  0  0  0  0  0  0  0
    6.7720    2.2186    0.4009 N   0  0  0  0  0  4  0  0  0  0  0  0
    6.1950   -0.0487    1.1607 C   0  0  2  0  0  0  0  0  0  0  0  0
    7.3925    0.1125    1.8148 O   0  0  0  0  0  0  0  0  0  0  0  0
    6.1629   -1.3295    0.3202 C   0  0  1  0  0  0  0  0  0  0  0  0
    6.2230   -2.4515    1.1099 O   0  0  0  0  0  0  0  0  0  0  0  0
    1.7366   -1.3445   -1.1382 O   0  0  0  0  0  0  0  0  0  0  0  0
    2.7812   -3.2336    0.3774 O   0  0  0  0  0  1  0  0  0  0  0  0
   -3.0554   -1.0675    0.0295 C   0  0  2  0  0  0  0  0  0  0  0  0
   -3.5047   -1.4760   -1.3370 C   0  0  2  0  0  0  0  0  0  0  0  0
   -4.6948   -0.5705   -1.5800 C   0  0  2  0  0  0  0  0  0  0  0  0
   -5.1024   -0.2748   -0.1499 C   0  0  2  0  0  0  0  0  0  0  0  0
   -6.0190    0.7997   -0.0324 N   0  0  0  0  0  0  0  0  0  0  0  0
   -7.1735    0.7965   -0.6953 C   0  0  0  0  0  0  0  0  0  0  0  0
   -8.0895    1.8512   -0.5893 C   0  0  0  0  0  0  0  0  0  0  0  0
   -7.7820    2.9118    0.2207 C   0  0  0  0  0  0  0  0  0  0  0  0
   -8.5805    3.8899    0.3482 O   0  0  0  0  0  0  0  0  0  0  0  0
   -6.6104    2.8919    0.8796 N   0  0  0  0  0  0  0  0  0  0  0  0
   -5.7345    1.8478    0.7569 C   0  0  0  0  0  0  0  0  0  0  0  0
   -4.6538    1.8936    1.4031 O   0  0  0  0  0  0  0  0  0  0  0  0
   -3.8774   -0.0279    0.4473 O   0  0  0  0  0  0  0  0  0  0  0  0
   -5.6660   -1.2861   -2.2700 O   0  0  0  0  0  0  0  0  0  0  0  0
   -3.9582   -2.8070   -1.3183 O   0  0  0  0  0  0  0  0  0  0  0  0
  1  2  1  0
  2  3  1  0
  3  4  2  0
  3  5  1  0
  3  6  1  0
  6  7  1  0
  7  8  1  0
  9  8  1  1
  9 10  1  0
 10 11  1  0
 11 12  1  0
 12 13  1  1
 12 14  1  0
 14 15  1  6
 14 16  1  0
 16 17  1  1
  7 18  2  0
  7 19  1  0
 20  1  1  6
 20 21  1  0
 21 22  1  0
 22 23  1  0
 23 24  1  6
 24 25  1  0
 25 26  2  0
 26 27  1  0
 27 28  2  0
 27 29  1  0
 29 30  1  0
 30 31  2  0
 23 32  1  0
 22 33  1  6
 21 34  1  1
 16  9  1  0
 30 24  1  0
 32 20  1  0
M  CHG  3   5  -1  13   1  19  -1
M  END

